REMARK  Name = IMPHY000409
REMARK  59 active torsions:
REMARK  status: ('A' for Active; 'I' for Inactive)
REMARK    1  A    between atoms: O_4  and  C_57
REMARK    2  A    between atoms: O_4  and  C_80
REMARK    3  A    between atoms: O_5  and  C_60
REMARK    4  A    between atoms: O_5  and  C_81
REMARK    5  A    between atoms: O_7  and  C_61
REMARK    6  A    between atoms: O_7  and  C_85
REMARK    7  A    between atoms: O_8  and  C_47
REMARK    8  A    between atoms: O_9  and  C_48
REMARK    9  A    between atoms: O_10  and  C_49
REMARK   10  A    between atoms: O_11  and  C_50
REMARK   11  A    between atoms: O_12  and  C_51
REMARK   12  A    between atoms: O_13  and  C_53
REMARK   13  A    between atoms: O_14  and  C_55
REMARK   14  A    between atoms: O_16  and  C_56
REMARK   15  A    between atoms: O_18  and  C_59
REMARK   16  A    between atoms: O_19  and  C_62
REMARK   17  A    between atoms: O_20  and  C_63
REMARK   18  A    between atoms: O_21  and  C_66
REMARK   19  A    between atoms: O_21  and  C_96
REMARK   20  A    between atoms: O_22  and  C_67
REMARK   21  A    between atoms: O_22  and  C_98
REMARK   22  A    between atoms: O_23  and  C_72
REMARK   23  A    between atoms: O_23  and  C_93
REMARK   24  A    between atoms: O_24  and  C_65
REMARK   25  A    between atoms: O_25  and  C_73
REMARK   26  A    between atoms: O_25  and  C_99
REMARK   27  A    between atoms: O_26  and  C_68
REMARK   28  A    between atoms: O_27  and  C_69
REMARK   29  A    between atoms: O_28  and  C_70
REMARK   30  A    between atoms: O_29  and  C_71
REMARK   31  A    between atoms: O_30  and  C_78
REMARK   32  A    between atoms: O_30  and  C_95
REMARK   33  A    between atoms: O_31  and  C_79
REMARK   34  A    between atoms: O_31  and  C_97
REMARK   35  A    between atoms: O_32  and  C_76
REMARK   36  A    between atoms: O_33  and  C_77
REMARK   37  A    between atoms: O_34  and  C_82
REMARK   38  A    between atoms: O_34  and  C_103
REMARK   39  A    between atoms: O_36  and  C_83
REMARK   40  A    between atoms: O_37  and  C_86
REMARK   41  A    between atoms: O_38  and  C_87
REMARK   42  A    between atoms: O_42  and  C_100
REMARK   43  A    between atoms: O_44  and  C_117
REMARK   44  A    between atoms: O_45  and  C_127
REMARK   45  A    between atoms: C_52  and  C_66
REMARK   46  A    between atoms: C_54  and  C_67
REMARK   47  A    between atoms: C_58  and  C_73
REMARK   48  A    between atoms: C_64  and  C_82
REMARK   49  A    between atoms: C_74  and  C_86
REMARK   50  A    between atoms: C_75  and  C_87
REMARK   51  A    between atoms: C_84  and  C_90
REMARK   52  A    between atoms: C_96  and  C_105
REMARK   53  A    between atoms: C_98  and  C_109
REMARK   54  A    between atoms: C_99  and  C_108
REMARK   55  A    between atoms: C_103  and  C_123
REMARK   56  A    between atoms: C_108  and  C_127
REMARK   57  A    between atoms: C_112  and  C_118
REMARK   58  A    between atoms: C_115  and  C_121
REMARK   59  A    between atoms: C_122  and  C_126
REMARK                            x       y       z     vdW  Elec       q    Type
REMARK                         _______ _______ _______ _____ _____    ______ ____
ROOT
ATOM      1  C   UNL     1      12.929  -7.750   0.000  0.00  0.00    +0.000 A 
ATOM      2  C   UNL     1      13.795  -9.250   0.000  0.00  0.00    +0.000 A 
ATOM      3  C   UNL     1      12.929  -8.750   0.000  0.00  0.00    +0.000 A 
ATOM      4  C   UNL     1      14.661  -7.750   0.000  0.00  0.00    +0.000 A 
ATOM      5  C   UNL     1      13.795  -7.250   0.000  0.00  0.00    +0.000 A 
ATOM      6  C   UNL     1      14.661  -8.750   0.000  0.00  0.00    +0.000 A 
ENDROOT
BRANCH   4   9
ATOM      7  O   UNL     1      15.527  -6.250   0.000  0.00  0.00    +0.000 OA
ATOM      8  C   UNL     1      16.393  -7.750   0.000  0.00  0.00    +0.000 A 
ATOM      9  C   UNL     1      15.527  -7.250   0.000  0.00  0.00    +0.000 A 
ATOM     10  C   UNL     1      17.259  -7.250   0.000  0.00  0.00    +0.000 A 
ATOM     11  C   UNL     1      17.259  -6.250   0.000  0.00  0.00    +0.000 A 
ATOM     12  C   UNL     1      16.393  -5.750   0.000  0.00  0.00    +0.000 A 
ATOM     13  C   UNL     1      18.169  -5.743   0.000  0.00  0.00    +0.000 A 
ATOM     14  C   UNL     1      16.377  -4.708   0.000  0.00  0.00    +0.000 A 
ATOM     15  C   UNL     1      18.177  -4.702   0.000  0.00  0.00    +0.000 A 
ATOM     16  C   UNL     1      17.275  -4.181   0.000  0.00  0.00    +0.000 A 
BRANCH  13  17
ATOM     17  O   UNL     1      19.030  -6.253   0.000  0.00  0.00    +0.000 OA
ATOM     18  H   UNL     1      19.570  -5.949   0.000  0.00  0.00    +0.000 HD
ENDBRANCH  13  17
BRANCH  16  19
ATOM     19  O   UNL     1      17.271  -3.181   0.000  0.00  0.00    +0.000 OA
ATOM     20  H   UNL     1      17.807  -2.869   0.000  0.00  0.00    +0.000 HD
ENDBRANCH  16  19
BRANCH   8  21
ATOM     21  O   UNL     1      16.393  -8.750   0.000  0.00  0.00    +0.000 OA
BRANCH  21  27
ATOM     22  O   UNL     1      18.125  -8.750   0.000  0.00  0.00    +0.000 OA
ATOM     23  C   UNL     1      18.991 -10.250   0.000  0.00  0.00    +0.000 C 
ATOM     24  C   UNL     1      18.125 -10.750   0.000  0.00  0.00    +0.000 C 
ATOM     25  C   UNL     1      18.991  -9.250   0.000  0.00  0.00    +0.000 C 
ATOM     26  C   UNL     1      17.259 -10.250   0.000  0.00  0.00    +0.000 C 
ATOM     27  C   UNL     1      17.259  -9.250   0.000  0.00  0.00    +0.000 C 
BRANCH  23  28
ATOM     28  O   UNL     1      19.857 -10.750   0.000  0.00  0.00    +0.000 OA
ATOM     29  H   UNL     1      19.857 -11.370   0.000  0.00  0.00    +0.000 HD
ENDBRANCH  23  28
BRANCH  24  30
ATOM     30  O   UNL     1      18.125 -11.750   0.000  0.00  0.00    +0.000 OA
ATOM     31  H   UNL     1      18.662 -12.060   0.000  0.00  0.00    +0.000 HD
ENDBRANCH  24  30
BRANCH  26  32
ATOM     32  O   UNL     1      16.393 -10.750   0.000  0.00  0.00    +0.000 OA
ATOM     33  H   UNL     1      15.856 -10.440   0.000  0.00  0.00    +0.000 HD
ENDBRANCH  26  32
BRANCH  25  34
ATOM     34  C   UNL     1      19.857  -8.750   0.000  0.00  0.00    +0.000 C 
BRANCH  34  35
ATOM     35  O   UNL     1      19.857  -7.750   0.000  0.00  0.00    +0.000 OA
BRANCH  35  37
ATOM     36  O   UNL     1      20.724  -6.250   0.000  0.00  0.00    +0.000 OA
ATOM     37  C   UNL     1      20.724  -7.250   0.000  0.00  0.00    +0.000 C 
BRANCH  37  38
ATOM     38  C   UNL     1      21.590  -7.750   0.000  0.00  0.00    +0.000 C 
BRANCH  38  40
ATOM     39  O   UNL     1      23.322  -7.750   0.000  0.00  0.00    +0.000 OA
ATOM     40  C   UNL     1      22.456  -7.250   0.000  0.00  0.00    +0.000 C 
BRANCH  40  41
ATOM     41  O   UNL     1      22.456  -6.250   0.000  0.00  0.00    +0.000 OA
ATOM     42  H   UNL     1      21.919  -5.940   0.000  0.00  0.00    +0.000 HD
ENDBRANCH  40  41
ENDBRANCH  38  40
ENDBRANCH  37  38
ENDBRANCH  35  37
ENDBRANCH  34  35
ENDBRANCH  25  34
ENDBRANCH  21  27
ENDBRANCH   8  21
ENDBRANCH   4   9
BRANCH   3  43
ATOM     43  O   UNL     1      12.063  -9.250   0.000  0.00  0.00    +0.000 OA
ATOM     44  H   UNL     1      11.526  -8.940   0.000  0.00  0.00    +0.000 HD
ENDBRANCH   3  43
BRANCH   1  45
ATOM     45  O   UNL     1      12.063  -7.250   0.000  0.00  0.00    +0.000 OA
BRANCH  45  51
ATOM     46  O   UNL     1      11.197  -5.750   0.000  0.00  0.00    +0.000 OA
ATOM     47  C   UNL     1      12.929  -4.750   0.000  0.00  0.00    +0.000 C 
ATOM     48  C   UNL     1      12.063  -4.250   0.000  0.00  0.00    +0.000 C 
ATOM     49  C   UNL     1      12.929  -5.750   0.000  0.00  0.00    +0.000 C 
ATOM     50  C   UNL     1      11.197  -4.750   0.000  0.00  0.00    +0.000 C 
ATOM     51  C   UNL     1      12.063  -6.250   0.000  0.00  0.00    +0.000 C 
BRANCH  49  52
ATOM     52  O   UNL     1      13.795  -6.250   0.000  0.00  0.00    +0.000 OA
ATOM     53  H   UNL     1      14.332  -5.940   0.000  0.00  0.00    +0.000 HD
ENDBRANCH  49  52
BRANCH  48  54
ATOM     54  O   UNL     1      12.063  -3.250   0.000  0.00  0.00    +0.000 OA
ATOM     55  H   UNL     1      12.600  -2.940   0.000  0.00  0.00    +0.000 HD
ENDBRANCH  48  54
BRANCH  47  56
ATOM     56  O   UNL     1      13.795  -4.250   0.000  0.00  0.00    +0.000 OA
ATOM     57  H   UNL     1      13.795  -3.630   0.000  0.00  0.00    +0.000 HD
ENDBRANCH  47  56
BRANCH  50  58
ATOM     58  C   UNL     1      10.331  -4.250   0.000  0.00  0.00    +0.000 C 
BRANCH  58  59
ATOM     59  O   UNL     1      10.331  -3.250   0.000  0.00  0.00    +0.000 OA
BRANCH  59  61
ATOM     60  O   UNL     1       9.465  -1.750   0.000  0.00  0.00    +0.000 OA
ATOM     61  C   UNL     1       9.465  -2.750   0.000  0.00  0.00    +0.000 C 
BRANCH  61  62
ATOM     62  C   UNL     1       8.599  -3.250   0.000  0.00  0.00    +0.000 C 
ATOM     63  C   UNL     1       7.733  -2.750   0.000  0.00  0.00    +0.000 C 
BRANCH  63  67
ATOM     64  C   UNL     1       7.733   0.250   0.000  0.00  0.00    +0.000 A 
ATOM     65  C   UNL     1       6.867  -0.250   0.000  0.00  0.00    +0.000 A 
ATOM     66  C   UNL     1       8.599  -0.250   0.000  0.00  0.00    +0.000 A 
ATOM     67  C   UNL     1       7.733  -1.750   0.000  0.00  0.00    +0.000 A 
ATOM     68  C   UNL     1       6.867  -1.250   0.000  0.00  0.00    +0.000 A 
ATOM     69  C   UNL     1       8.599  -1.250   0.000  0.00  0.00    +0.000 A 
BRANCH  64  70
ATOM     70  O   UNL     1       7.733   1.250   0.000  0.00  0.00    +0.000 OA
BRANCH  70  76
ATOM     71  O   UNL     1       6.867   2.750   0.000  0.00  0.00    +0.000 OA
ATOM     72  C   UNL     1       5.135   2.750   0.000  0.00  0.00    +0.000 C 
ATOM     73  C   UNL     1       5.135   1.750   0.000  0.00  0.00    +0.000 C 
ATOM     74  C   UNL     1       6.001   3.250   0.000  0.00  0.00    +0.000 C 
ATOM     75  C   UNL     1       6.001   1.250   0.000  0.00  0.00    +0.000 C 
ATOM     76  C   UNL     1       6.867   1.750   0.000  0.00  0.00    +0.000 C 
BRANCH  73  77
ATOM     77  O   UNL     1       4.269   1.250   0.000  0.00  0.00    +0.000 OA
ATOM     78  H   UNL     1       3.732   1.560   0.000  0.00  0.00    +0.000 HD
ENDBRANCH  73  77
BRANCH  72  79
ATOM     79  O   UNL     1       4.269   3.250   0.000  0.00  0.00    +0.000 OA
ATOM     80  H   UNL     1       3.732   2.940   0.000  0.00  0.00    +0.000 HD
ENDBRANCH  72  79
BRANCH  75  81
ATOM     81  O   UNL     1       6.001   0.250   0.000  0.00  0.00    +0.000 OA
ATOM     82  H   UNL     1       5.464  -0.060   0.000  0.00  0.00    +0.000 HD
ENDBRANCH  75  81
BRANCH  74  83
ATOM     83  C   UNL     1       6.001   4.250   0.000  0.00  0.00    +0.000 C 
BRANCH  83  84
ATOM     84  O   UNL     1       5.135   4.750   0.000  0.00  0.00    +0.000 OA
BRANCH  84  86
ATOM     85  O   UNL     1       6.001   6.250   0.000  0.00  0.00    +0.000 OA
ATOM     86  C   UNL     1       5.135   5.750   0.000  0.00  0.00    +0.000 C 
BRANCH  86  87
ATOM     87  C   UNL     1       4.269   6.250   0.000  0.00  0.00    +0.000 C 
ATOM     88  C   UNL     1       4.269   7.250   0.000  0.00  0.00    +0.000 C 
BRANCH  88  92
ATOM     89  C   UNL     1       6.867   8.750   0.000  0.00  0.00    +0.000 A 
ATOM     90  C   UNL     1       6.001   9.250   0.000  0.00  0.00    +0.000 A 
ATOM     91  C   UNL     1       6.867   7.750   0.000  0.00  0.00    +0.000 A 
ATOM     92  C   UNL     1       5.135   7.750   0.000  0.00  0.00    +0.000 A 
ATOM     93  C   UNL     1       5.135   8.750   0.000  0.00  0.00    +0.000 A 
ATOM     94  C   UNL     1       6.001   7.250   0.000  0.00  0.00    +0.000 A 
BRANCH  89  95
ATOM     95  O   UNL     1       7.733   9.250   0.000  0.00  0.00    +0.000 OA
BRANCH  95 101
ATOM     96  O   UNL     1       6.867  10.750   0.000  0.00  0.00    +0.000 OA
ATOM     97  C   UNL     1       7.733  12.250   0.000  0.00  0.00    +0.000 C 
ATOM     98  C   UNL     1       8.599  11.750   0.000  0.00  0.00    +0.000 C 
ATOM     99  C   UNL     1       6.867  11.750   0.000  0.00  0.00    +0.000 C 
ATOM    100  C   UNL     1       8.599  10.750   0.000  0.00  0.00    +0.000 C 
ATOM    101  C   UNL     1       7.733  10.250   0.000  0.00  0.00    +0.000 C 
BRANCH  98 102
ATOM    102  O   UNL     1       9.465  12.250   0.000  0.00  0.00    +0.000 OA
ATOM    103  H   UNL     1       9.465  12.870   0.000  0.00  0.00    +0.000 HD
ENDBRANCH  98 102
BRANCH 100 104
ATOM    104  O   UNL     1       9.465  10.250   0.000  0.00  0.00    +0.000 OA
ATOM    105  H   UNL     1      10.002  10.560   0.000  0.00  0.00    +0.000 HD
ENDBRANCH 100 104
BRANCH  97 106
ATOM    106  O   UNL     1       7.733  13.250   0.000  0.00  0.00    +0.000 OA
ATOM    107  H   UNL     1       8.270  13.560   0.000  0.00  0.00    +0.000 HD
ENDBRANCH  97 106
BRANCH  99 108
ATOM    108  C   UNL     1       6.001  12.250   0.000  0.00  0.00    +0.000 C 
BRANCH 108 109
ATOM    109  O   UNL     1       6.001  13.250   0.000  0.00  0.00    +0.000 OA
ATOM    110  H   UNL     1       5.464  13.560   0.000  0.00  0.00    +0.000 HD
ENDBRANCH 108 109
ENDBRANCH  99 108
ENDBRANCH  95 101
ENDBRANCH  89  95
ENDBRANCH  88  92
ENDBRANCH  86  87
ENDBRANCH  84  86
ENDBRANCH  83  84
ENDBRANCH  74  83
ENDBRANCH  70  76
ENDBRANCH  64  70
ENDBRANCH  63  67
ENDBRANCH  61  62
ENDBRANCH  59  61
ENDBRANCH  58  59
ENDBRANCH  50  58
ENDBRANCH  45  51
ENDBRANCH   1  45
BRANCH   2 111
ATOM    111  O   UNL     1      13.795 -10.250   0.000  0.00  0.00    +0.000 OA
BRANCH 111 117
ATOM    112  O   UNL     1      12.063 -10.250   0.000  0.00  0.00    +0.000 OA
ATOM    113  C   UNL     1      12.063 -12.250   0.000  0.00  0.00    +0.000 C 
ATOM    114  C   UNL     1      11.197 -11.750   0.000  0.00  0.00    +0.000 C 
ATOM    115  C   UNL     1      12.929 -11.750   0.000  0.00  0.00    +0.000 C 
ATOM    116  C   UNL     1      11.197 -10.750   0.000  0.00  0.00    +0.000 C 
ATOM    117  C   UNL     1      12.929 -10.750   0.000  0.00  0.00    +0.000 C 
BRANCH 114 118
ATOM    118  O   UNL     1      10.331 -12.250   0.000  0.00  0.00    +0.000 OA
ATOM    119  H   UNL     1      10.331 -12.870   0.000  0.00  0.00    +0.000 HD
ENDBRANCH 114 118
BRANCH 115 120
ATOM    120  O   UNL     1      13.795 -12.250   0.000  0.00  0.00    +0.000 OA
ATOM    121  H   UNL     1      14.332 -11.940   0.000  0.00  0.00    +0.000 HD
ENDBRANCH 115 120
BRANCH 113 122
ATOM    122  O   UNL     1      12.063 -13.250   0.000  0.00  0.00    +0.000 OA
ATOM    123  H   UNL     1      12.600 -13.560   0.000  0.00  0.00    +0.000 HD
ENDBRANCH 113 122
BRANCH 116 124
ATOM    124  C   UNL     1      10.331 -10.250   0.000  0.00  0.00    +0.000 C 
BRANCH 124 125
ATOM    125  O   UNL     1       9.465 -10.750   0.000  0.00  0.00    +0.000 OA
BRANCH 125 127
ATOM    126  O   UNL     1       8.599  -9.250   0.000  0.00  0.00    +0.000 OA
ATOM    127  C   UNL     1       8.599 -10.250   0.000  0.00  0.00    +0.000 C 
BRANCH 127 128
ATOM    128  C   UNL     1       7.733 -10.750   0.000  0.00  0.00    +0.000 C 
ATOM    129  C   UNL     1       6.867 -10.250   0.000  0.00  0.00    +0.000 C 
BRANCH 129 133
ATOM    130  C   UNL     1       6.867  -7.250   0.000  0.00  0.00    +0.000 A 
ATOM    131  C   UNL     1       6.001  -7.750   0.000  0.00  0.00    +0.000 A 
ATOM    132  C   UNL     1       7.733  -7.750   0.000  0.00  0.00    +0.000 A 
ATOM    133  C   UNL     1       6.867  -9.250   0.000  0.00  0.00    +0.000 A 
ATOM    134  C   UNL     1       6.001  -8.750   0.000  0.00  0.00    +0.000 A 
ATOM    135  C   UNL     1       7.733  -8.750   0.000  0.00  0.00    +0.000 A 
BRANCH 130 136
ATOM    136  O   UNL     1       6.867  -6.250   0.000  0.00  0.00    +0.000 OA
BRANCH 136 142
ATOM    137  O   UNL     1       5.135  -6.250   0.000  0.00  0.00    +0.000 OA
ATOM    138  C   UNL     1       4.269  -4.750   0.000  0.00  0.00    +0.000 C 
ATOM    139  C   UNL     1       5.135  -4.250   0.000  0.00  0.00    +0.000 C 
ATOM    140  C   UNL     1       4.269  -5.750   0.000  0.00  0.00    +0.000 C 
ATOM    141  C   UNL     1       6.001  -4.750   0.000  0.00  0.00    +0.000 C 
ATOM    142  C   UNL     1       6.001  -5.750   0.000  0.00  0.00    +0.000 C 
BRANCH 141 143
ATOM    143  O   UNL     1       6.867  -4.250   0.000  0.00  0.00    +0.000 OA
ATOM    144  H   UNL     1       6.867  -3.630   0.000  0.00  0.00    +0.000 HD
ENDBRANCH 141 143
BRANCH 138 145
ATOM    145  O   UNL     1       3.403  -4.250   0.000  0.00  0.00    +0.000 OA
ATOM    146  H   UNL     1       3.403  -3.630   0.000  0.00  0.00    +0.000 HD
ENDBRANCH 138 145
BRANCH 139 147
ATOM    147  O   UNL     1       5.135  -3.250   0.000  0.00  0.00    +0.000 OA
ATOM    148  H   UNL     1       4.598  -2.940   0.000  0.00  0.00    +0.000 HD
ENDBRANCH 139 147
BRANCH 140 149
ATOM    149  C   UNL     1       3.403  -6.250   0.000  0.00  0.00    +0.000 C 
BRANCH 149 150
ATOM    150  O   UNL     1       2.537  -5.750   0.000  0.00  0.00    +0.000 OA
ATOM    151  H   UNL     1       2.000  -6.060   0.000  0.00  0.00    +0.000 HD
ENDBRANCH 149 150
ENDBRANCH 140 149
ENDBRANCH 136 142
ENDBRANCH 130 136
ENDBRANCH 129 133
ENDBRANCH 127 128
ENDBRANCH 125 127
ENDBRANCH 124 125
ENDBRANCH 116 124
ENDBRANCH 111 117
ENDBRANCH   2 111
TORSDOF 59
