REMARK  Name = IMPHY000332
REMARK  58 active torsions:
REMARK  status: ('A' for Active; 'I' for Inactive)
REMARK    1  A    between atoms: O_1  and  C_56
REMARK    2  A    between atoms: O_1  and  C_70
REMARK    3  A    between atoms: O_2  and  C_54
REMARK    4  A    between atoms: O_3  and  C_64
REMARK    5  A    between atoms: O_3  and  C_73
REMARK    6  A    between atoms: O_4  and  C_67
REMARK    7  A    between atoms: O_4  and  C_72
REMARK    8  A    between atoms: O_7  and  C_71
REMARK    9  A    between atoms: O_7  and  C_83
REMARK   10  A    between atoms: O_10  and  C_74
REMARK   11  A    between atoms: O_11  and  C_77
REMARK   12  A    between atoms: O_11  and  C_88
REMARK   13  A    between atoms: O_12  and  C_76
REMARK   14  A    between atoms: O_13  and  C_79
REMARK   15  A    between atoms: O_14  and  C_81
REMARK   16  A    between atoms: O_14  and  C_93
REMARK   17  A    between atoms: O_16  and  C_82
REMARK   18  A    between atoms: O_17  and  C_86
REMARK   19  A    between atoms: O_17  and  C_100
REMARK   20  A    between atoms: O_19  and  C_87
REMARK   21  A    between atoms: O_20  and  C_89
REMARK   22  A    between atoms: O_22  and  C_91
REMARK   23  A    between atoms: O_23  and  C_94
REMARK   24  A    between atoms: O_24  and  C_96
REMARK   25  A    between atoms: O_26  and  C_97
REMARK   26  A    between atoms: O_27  and  C_99
REMARK   27  A    between atoms: O_28  and  C_101
REMARK   28  A    between atoms: O_28  and  C_112
REMARK   29  A    between atoms: O_29  and  C_102
REMARK   30  A    between atoms: O_30  and  C_104
REMARK   31  A    between atoms: O_31  and  C_105
REMARK   32  A    between atoms: O_32  and  C_106
REMARK   33  A    between atoms: O_33  and  C_110
REMARK   34  A    between atoms: O_34  and  C_111
REMARK   35  A    between atoms: O_36  and  C_115
REMARK   36  A    between atoms: O_37  and  C_116
REMARK   37  A    between atoms: O_38  and  C_118
REMARK   38  A    between atoms: O_39  and  C_119
REMARK   39  A    between atoms: C_40  and  C_55
REMARK   40  A    between atoms: C_42  and  C_58
REMARK   41  A    between atoms: C_43  and  C_60
REMARK   42  A    between atoms: C_48  and  C_65
REMARK   43  A    between atoms: C_48  and  C_66
REMARK   44  A    between atoms: C_53  and  C_67
REMARK   45  A    between atoms: C_63  and  C_68
REMARK   46  A    between atoms: C_63  and  C_69
REMARK   47  A    between atoms: C_73  and  C_78
REMARK   48  A    between atoms: C_75  and  C_81
REMARK   49  A    between atoms: C_78  and  C_84
REMARK   50  A    between atoms: C_80  and  C_86
REMARK   51  A    between atoms: C_85  and  C_90
REMARK   52  A    between atoms: C_90  and  C_95
REMARK   53  A    between atoms: C_95  and  C_101
REMARK   54  A    between atoms: C_101  and  C_107
REMARK   55  A    between atoms: C_101  and  C_108
REMARK   56  A    between atoms: C_103  and  C_110
REMARK   57  A    between atoms: C_109  and  C_113
REMARK   58  A    between atoms: C_117  and  C_119
REMARK                            x       y       z     vdW  Elec       q    Type
REMARK                         _______ _______ _______ _____ _____    ______ ____
ROOT
ATOM      1  C   UNL     1      11.232  -2.145   0.000  0.00  0.00    +0.000 C 
ATOM      2  C   UNL     1      10.368  -2.648   0.000  0.00  0.00    +0.000 C 
ATOM      3  C   UNL     1      10.356  -3.689   0.000  0.00  0.00    +0.000 C 
ATOM      4  C   UNL     1      11.228  -1.145   0.000  0.00  0.00    +0.000 C 
ATOM      5  C   UNL     1      11.256  -4.214   0.000  0.00  0.00    +0.000 C 
ATOM      6  C   UNL     1      12.144  -2.648   0.000  0.00  0.00    +0.000 C 
ATOM      7  C   UNL     1      10.360  -0.648   0.000  0.00  0.00    +0.000 C 
ATOM      8  C   UNL     1      12.156  -3.689   0.000  0.00  0.00    +0.000 C 
ATOM      9  C   UNL     1      11.269  -5.299   0.000  0.00  0.00    +0.000 C 
ATOM     10  C   UNL     1      10.340   0.394   0.000  0.00  0.00    +0.000 C 
ATOM     11  C   UNL     1       9.500  -2.151   0.000  0.00  0.00    +0.000 C 
ATOM     12  C   UNL     1      12.136  -0.634   0.000  0.00  0.00    +0.000 C 
ATOM     13  C   UNL     1       9.406  -4.214   0.000  0.00  0.00    +0.000 C 
ATOM     14  C   UNL     1      11.236   0.925   0.000  0.00  0.00    +0.000 C 
ATOM     15  C   UNL     1      12.140   0.407   0.000  0.00  0.00    +0.000 C 
ATOM     16  C   UNL     1      12.216  -1.967   0.000  0.00  0.00    +0.000 C 
ATOM     17  C   UNL     1      10.331  -5.845   0.000  0.00  0.00    +0.000 C 
ATOM     18  C   UNL     1       9.496  -1.151   0.000  0.00  0.00    +0.000 C 
ATOM     19  C   UNL     1       9.492  -3.186   0.000  0.00  0.00    +0.000 C 
ATOM     20  C   UNL     1       9.394  -5.299   0.000  0.00  0.00    +0.000 C 
ATOM     21  C   UNL     1      12.214  -1.315   0.000  0.00  0.00    +0.000 C 
ATOM     22  C   UNL     1       9.386   0.910   0.000  0.00  0.00    +0.000 C 
ATOM     23  C   UNL     1      11.241   2.010   0.000  0.00  0.00    +0.000 C 
ATOM     24  C   UNL     1       9.366   1.995   0.000  0.00  0.00    +0.000 C 
ATOM     25  C   UNL     1      10.299   2.549   0.000  0.00  0.00    +0.000 C 
ATOM     26  C   UNL     1      12.269  -5.291   0.000  0.00  0.00    +0.000 C 
ATOM     27  C   UNL     1      11.775  -6.161   0.000  0.00  0.00    +0.000 C 
ATOM     28  C   UNL     1       8.852   2.853   0.000  0.00  0.00    +0.000 C 
ATOM     29  C   UNL     1       8.366   1.980   0.000  0.00  0.00    +0.000 C 
ENDROOT
BRANCH  15  30
ATOM     30  O   UNL     1      13.007   0.907   0.000  0.00  0.00    +0.000 OA
ATOM     31  H   UNL     1      13.543   0.597   0.000  0.00  0.00    +0.000 HD
ENDBRANCH  15  30
BRANCH  14  33
ATOM     32  O   UNL     1      12.957   1.945   0.000  0.00  0.00    +0.000 OA
ATOM     33  C   UNL     1      12.097   1.435   0.000  0.00  0.00    +0.000 C 
BRANCH  33  34
ATOM     34  O   UNL     1      12.085   2.435   0.000  0.00  0.00    +0.000 OA
BRANCH  34  36
ATOM     35  O   UNL     1      12.934   3.945   0.000  0.00  0.00    +0.000 OA
ATOM     36  C   UNL     1      12.945   2.945   0.000  0.00  0.00    +0.000 C 
ATOM     37  C   UNL     1      13.817   2.455   0.000  0.00  0.00    +0.000 C 
ATOM     38  C   UNL     1      14.677   2.965   0.000  0.00  0.00    +0.000 C 
ATOM     39  C   UNL     1      13.794   4.455   0.000  0.00  0.00    +0.000 C 
ATOM     40  C   UNL     1      14.665   3.965   0.000  0.00  0.00    +0.000 C 
BRANCH  38  41
ATOM     41  O   UNL     1      15.549   2.475   0.000  0.00  0.00    +0.000 OA
ATOM     42  H   UNL     1      16.082   2.791   0.000  0.00  0.00    +0.000 HD
ENDBRANCH  38  41
BRANCH  40  43
ATOM     43  O   UNL     1      15.526   4.474   0.000  0.00  0.00    +0.000 OA
ATOM     44  H   UNL     1      16.066   4.171   0.000  0.00  0.00    +0.000 HD
ENDBRANCH  40  43
BRANCH  39  45
ATOM     45  C   UNL     1      13.782   5.454   0.000  0.00  0.00    +0.000 C 
BRANCH  45  46
ATOM     46  O   UNL     1      14.642   5.964   0.000  0.00  0.00    +0.000 OA
BRANCH  46  48
ATOM     47  O   UNL     1      15.491   7.474   0.000  0.00  0.00    +0.000 OA
ATOM     48  C   UNL     1      14.631   6.964   0.000  0.00  0.00    +0.000 C 
ATOM     49  C   UNL     1      13.759   7.454   0.000  0.00  0.00    +0.000 C 
ATOM     50  C   UNL     1      13.748   8.454   0.000  0.00  0.00    +0.000 C 
ATOM     51  C   UNL     1      15.479   8.474   0.000  0.00  0.00    +0.000 C 
ATOM     52  C   UNL     1      14.608   8.964   0.000  0.00  0.00    +0.000 C 
ATOM     53  C   UNL     1      16.340   8.984   0.000  0.00  0.00    +0.000 C 
BRANCH  52  54
ATOM     54  O   UNL     1      14.596   9.964   0.000  0.00  0.00    +0.000 OA
ATOM     55  H   UNL     1      15.130  10.280   0.000  0.00  0.00    +0.000 HD
ENDBRANCH  52  54
BRANCH  49  56
ATOM     56  O   UNL     1      12.899   6.944   0.000  0.00  0.00    +0.000 OA
ATOM     57  H   UNL     1      12.358   7.248   0.000  0.00  0.00    +0.000 HD
ENDBRANCH  49  56
BRANCH  50  58
ATOM     58  O   UNL     1      12.876   8.944   0.000  0.00  0.00    +0.000 OA
ATOM     59  H   UNL     1      12.869   9.564   0.000  0.00  0.00    +0.000 HD
ENDBRANCH  50  58
ENDBRANCH  46  48
ENDBRANCH  45  46
ENDBRANCH  39  45
BRANCH  37  60
ATOM     60  O   UNL     1      13.829   1.455   0.000  0.00  0.00    +0.000 OA
BRANCH  60  62
ATOM     61  O   UNL     1      15.560   1.475   0.000  0.00  0.00    +0.000 OA
ATOM     62  C   UNL     1      14.700   0.965   0.000  0.00  0.00    +0.000 C 
ATOM     63  C   UNL     1      14.712  -0.035   0.000  0.00  0.00    +0.000 C 
ATOM     64  C   UNL     1      15.584  -0.525   0.000  0.00  0.00    +0.000 C 
ATOM     65  C   UNL     1      16.432   0.985   0.000  0.00  0.00    +0.000 C 
ATOM     66  C   UNL     1      16.444  -0.015   0.000  0.00  0.00    +0.000 C 
BRANCH  66  67
ATOM     67  O   UNL     1      17.316  -0.505   0.000  0.00  0.00    +0.000 OA
ATOM     68  H   UNL     1      17.849  -0.189   0.000  0.00  0.00    +0.000 HD
ENDBRANCH  66  67
BRANCH  63  69
ATOM     69  O   UNL     1      13.852  -0.545   0.000  0.00  0.00    +0.000 OA
ATOM     70  H   UNL     1      13.859  -1.165   0.000  0.00  0.00    +0.000 HD
ENDBRANCH  63  69
BRANCH  64  71
ATOM     71  O   UNL     1      15.595  -1.525   0.000  0.00  0.00    +0.000 OA
ATOM     72  H   UNL     1      16.136  -1.829   0.000  0.00  0.00    +0.000 HD
ENDBRANCH  64  71
ENDBRANCH  60  62
ENDBRANCH  37  60
ENDBRANCH  34  36
ENDBRANCH  33  34
ENDBRANCH  14  33
BRANCH  17  73
ATOM     73  O   UNL     1      10.331  -6.845   0.000  0.00  0.00    +0.000 OA
BRANCH  73  75
ATOM     74  O   UNL     1       8.599  -6.845   0.000  0.00  0.00    +0.000 OA
ATOM     75  C   UNL     1       9.465  -7.345   0.000  0.00  0.00    +0.000 C 
ATOM     76  C   UNL     1       9.465  -8.345   0.000  0.00  0.00    +0.000 C 
ATOM     77  C   UNL     1       8.599  -8.845   0.000  0.00  0.00    +0.000 C 
ATOM     78  C   UNL     1       7.733  -7.345   0.000  0.00  0.00    +0.000 C 
ATOM     79  C   UNL     1       7.733  -8.345   0.000  0.00  0.00    +0.000 C 
BRANCH  77  80
ATOM     80  O   UNL     1       8.599  -9.845   0.000  0.00  0.00    +0.000 OA
ATOM     81  H   UNL     1       8.062 -10.155   0.000  0.00  0.00    +0.000 HD
ENDBRANCH  77  80
BRANCH  79  82
ATOM     82  O   UNL     1       6.867  -8.845   0.000  0.00  0.00    +0.000 OA
ATOM     83  H   UNL     1       6.867  -9.465   0.000  0.00  0.00    +0.000 HD
ENDBRANCH  79  82
BRANCH  78  84
ATOM     84  C   UNL     1       6.867  -6.845   0.000  0.00  0.00    +0.000 C 
BRANCH  84  85
ATOM     85  O   UNL     1       6.001  -7.345   0.000  0.00  0.00    +0.000 OA
BRANCH  85  87
ATOM     86  O   UNL     1       4.269  -7.345   0.000  0.00  0.00    +0.000 OA
ATOM     87  C   UNL     1       5.135  -6.845   0.000  0.00  0.00    +0.000 C 
ATOM     88  C   UNL     1       5.135  -5.845   0.000  0.00  0.00    +0.000 C 
ATOM     89  C   UNL     1       4.269  -5.345   0.000  0.00  0.00    +0.000 C 
ATOM     90  C   UNL     1       3.403  -6.845   0.000  0.00  0.00    +0.000 C 
ATOM     91  C   UNL     1       3.403  -5.845   0.000  0.00  0.00    +0.000 C 
BRANCH  88  92
ATOM     92  O   UNL     1       6.001  -5.345   0.000  0.00  0.00    +0.000 OA
ATOM     93  H   UNL     1       6.001  -4.725   0.000  0.00  0.00    +0.000 HD
ENDBRANCH  88  92
BRANCH  89  94
ATOM     94  O   UNL     1       4.269  -4.345   0.000  0.00  0.00    +0.000 OA
ATOM     95  H   UNL     1       3.732  -4.035   0.000  0.00  0.00    +0.000 HD
ENDBRANCH  89  94
BRANCH  91  96
ATOM     96  O   UNL     1       2.537  -5.345   0.000  0.00  0.00    +0.000 OA
ATOM     97  H   UNL     1       2.000  -5.655   0.000  0.00  0.00    +0.000 HD
ENDBRANCH  91  96
BRANCH  90  98
ATOM     98  C   UNL     1       2.537  -7.345   0.000  0.00  0.00    +0.000 C 
BRANCH  98  99
ATOM     99  O   UNL     1       2.537  -8.345   0.000  0.00  0.00    +0.000 OA
ATOM    100  H   UNL     1       2.000  -8.655   0.000  0.00  0.00    +0.000 HD
ENDBRANCH  98  99
ENDBRANCH  90  98
ENDBRANCH  85  87
ENDBRANCH  84  85
ENDBRANCH  78  84
BRANCH  76 101
ATOM    101  O   UNL     1      10.331  -8.845   0.000  0.00  0.00    +0.000 OA
BRANCH 101 103
ATOM    102  O   UNL     1       9.465 -10.345   0.000  0.00  0.00    +0.000 OA
ATOM    103  C   UNL     1      10.331  -9.845   0.000  0.00  0.00    +0.000 C 
ATOM    104  C   UNL     1      11.197 -10.345   0.000  0.00  0.00    +0.000 C 
ATOM    105  C   UNL     1      11.197 -11.345   0.000  0.00  0.00    +0.000 C 
ATOM    106  C   UNL     1       9.465 -11.345   0.000  0.00  0.00    +0.000 C 
ATOM    107  C   UNL     1      10.331 -11.845   0.000  0.00  0.00    +0.000 C 
BRANCH 107 108
ATOM    108  O   UNL     1      10.331 -12.845   0.000  0.00  0.00    +0.000 OA
ATOM    109  H   UNL     1       9.794 -13.155   0.000  0.00  0.00    +0.000 HD
ENDBRANCH 107 108
BRANCH 104 110
ATOM    110  O   UNL     1      12.063  -9.845   0.000  0.00  0.00    +0.000 OA
ATOM    111  H   UNL     1      12.600 -10.155   0.000  0.00  0.00    +0.000 HD
ENDBRANCH 104 110
BRANCH 105 112
ATOM    112  O   UNL     1      12.063 -11.845   0.000  0.00  0.00    +0.000 OA
ATOM    113  H   UNL     1      12.063 -12.465   0.000  0.00  0.00    +0.000 HD
ENDBRANCH 105 112
ENDBRANCH 101 103
ENDBRANCH  76 101
ENDBRANCH  73  75
ENDBRANCH  17  73
BRANCH  25 114
ATOM    114  O   UNL     1      10.291   3.549   0.000  0.00  0.00    +0.000 OA
BRANCH 114 116
ATOM    115  O   UNL     1      12.023   3.562   0.000  0.00  0.00    +0.000 OA
ATOM    116  C   UNL     1      11.153   4.055   0.000  0.00  0.00    +0.000 C 
BRANCH 116 117
ATOM    117  C   UNL     1      11.146   5.055   0.000  0.00  0.00    +0.000 C 
ATOM    118  C   UNL     1      12.008   5.562   0.000  0.00  0.00    +0.000 C 
ATOM    119  C   UNL     1      10.276   5.548   0.000  0.00  0.00    +0.000 C 
BRANCH 119 120
ATOM    120  C   UNL     1      10.268   6.548   0.000  0.00  0.00    +0.000 C 
BRANCH 120 121
ATOM    121  C   UNL     1       9.398   7.042   0.000  0.00  0.00    +0.000 C 
BRANCH 121 122
ATOM    122  C   UNL     1       9.390   8.042   0.000  0.00  0.00    +0.000 C 
ATOM    123  C   UNL     1      10.390   8.049   0.000  0.00  0.00    +0.000 C 
BRANCH 122 124
ATOM    124  C   UNL     1       8.390   8.034   0.000  0.00  0.00    +0.000 C 
ATOM    125  C   UNL     1       7.897   7.164   0.000  0.00  0.00    +0.000 C 
ENDBRANCH 122 124
BRANCH 122 126
ATOM    126  O   UNL     1       9.383   9.042   0.000  0.00  0.00    +0.000 OA
BRANCH 126 128
ATOM    127  O   UNL     1       8.505  10.535   0.000  0.00  0.00    +0.000 OA
ATOM    128  C   UNL     1       8.513   9.535   0.000  0.00  0.00    +0.000 C 
ATOM    129  C   UNL     1       7.651   9.028   0.000  0.00  0.00    +0.000 C 
ATOM    130  C   UNL     1       6.781   9.522   0.000  0.00  0.00    +0.000 C 
ATOM    131  C   UNL     1       7.635  11.028   0.000  0.00  0.00    +0.000 C 
ATOM    132  C   UNL     1       6.773  10.522   0.000  0.00  0.00    +0.000 C 
BRANCH 129 133
ATOM    133  O   UNL     1       7.658   8.028   0.000  0.00  0.00    +0.000 OA
ATOM    134  H   UNL     1       7.124   7.714   0.000  0.00  0.00    +0.000 HD
ENDBRANCH 129 133
BRANCH 130 135
ATOM    135  O   UNL     1       5.919   9.015   0.000  0.00  0.00    +0.000 OA
ATOM    136  H   UNL     1       5.379   9.321   0.000  0.00  0.00    +0.000 HD
ENDBRANCH 130 135
BRANCH 132 137
ATOM    137  O   UNL     1       5.903  11.015   0.000  0.00  0.00    +0.000 OA
ATOM    138  H   UNL     1       5.899  11.635   0.000  0.00  0.00    +0.000 HD
ENDBRANCH 132 137
BRANCH 131 139
ATOM    139  C   UNL     1       7.628  12.028   0.000  0.00  0.00    +0.000 C 
BRANCH 139 140
ATOM    140  O   UNL     1       8.490  12.535   0.000  0.00  0.00    +0.000 OA
ATOM    141  H   UNL     1       8.485  13.155   0.000  0.00  0.00    +0.000 HD
ENDBRANCH 139 140
ENDBRANCH 131 139
ENDBRANCH 126 128
ENDBRANCH 122 126
ENDBRANCH 121 122
ENDBRANCH 120 121
ENDBRANCH 119 120
ENDBRANCH 116 117
ENDBRANCH 114 116
ENDBRANCH  25 114
TORSDOF 48
