@<TRIPOS>MOLECULE
./IMPHY000332.pdb
 247 258 0 0 0
SMALL
GASTEIGER

@<TRIPOS>ATOM
      1  O         10.6870   -6.9100   -0.6300 O.3     1  UNL1       -0.3449
      2  O         14.7180    1.0120   -1.3970 O.3     1  UNL1       -0.3906
      3  O         10.6500    2.5000    3.0530 O.3     1  UNL1       -0.4575
      4  O         14.6420    3.4370   -0.8770 O.3     1  UNL1       -0.4318
      5  O         12.7070    4.3830   -0.2410 O.2     1  UNL1       -0.2500
      6  O          8.5960   -6.8400   -0.8000 O.3     1  UNL1       -0.3405
      7  O          9.7740   -8.8000   -1.4000 O.3     1  UNL1       -0.3378
      8  O         15.3420    5.2510    0.3440 O.3     1  UNL1       -0.3312
      9  O          9.7900    3.3060    4.9370 O.2     1  UNL1       -0.2453
     10  O          8.3740  -10.4720    0.8230 O.3     1  UNL1       -0.3864
     11  O         17.1680    2.5330   -1.4090 O.3     1  UNL1       -0.3366
     12  O          6.4940   -9.0150    0.2750 O.3     1  UNL1       -0.3865
     13  O         18.7990    4.7000   -1.6910 O.3     1  UNL1       -0.3863
     14  O          5.8940   -6.8380    1.2710 O.3     1  UNL1       -0.3460
     15  O         11.1480  -10.2300   -2.5770 O.3     1  UNL1       -0.3461
     16  O         18.7470    6.7040    0.5700 O.3     1  UNL1       -0.3865
     17  O         15.5270    8.0110    0.3700 O.3     1  UNL1       -0.3461
     18  O         19.4940    2.0460   -1.3970 O.3     1  UNL1       -0.3461
     19  O         10.8250   -9.8730    1.3290 O.3     1  UNL1       -0.3841
     20  O         11.9590  -11.7480    1.1820 O.3     1  UNL1       -0.3864
     21  O          4.2000   -7.0930    0.8550 O.3     1  UNL1       -0.3405
     22  O         16.7840    0.1040    0.2910 O.3     1  UNL1       -0.3841
     23  O         12.4700  -13.2590   -1.2030 O.3     1  UNL1       -0.3869
     24  O         19.1000   -1.1020    1.4050 O.3     1  UNL1       -0.3864
     25  O         17.0390    9.7120    0.0080 O.3     1  UNL1       -0.3431
     26  O          6.2460   -5.5520   -0.8790 O.3     1  UNL1       -0.3841
     27  O         21.3560   -0.3750   -0.7530 O.3     1  UNL1       -0.3869
     28  O          9.3900    9.3140    0.8240 O.3     1  UNL1       -0.3384
     29  O          4.0930   -3.9900   -1.2920 O.3     1  UNL1       -0.3864
     30  O          2.1760   -5.3980   -0.6330 O.3     1  UNL1       -0.3865
     31  O         13.4040    9.8300    0.4620 O.3     1  UNL1       -0.3841
     32  O         13.9720   12.4530   -0.5530 O.3     1  UNL1       -0.3864
     33  O          2.1010   -8.6860    1.2490 O.3     1  UNL1       -0.3924
     34  O         16.6280   13.3560   -0.1500 O.3     1  UNL1       -0.3866
     35  O          9.8940   11.3930   -0.2180 O.3     1  UNL1       -0.3405
     36  O          7.1640   10.5460    2.0680 O.3     1  UNL1       -0.3841
     37  O          6.9620   13.3550    1.9970 O.3     1  UNL1       -0.3864
     38  O          8.0520   14.5790   -0.3370 O.3     1  UNL1       -0.3865
     39  O         11.0870   12.6010   -2.4440 O.3     1  UNL1       -0.3924
     40  C         12.9470   -1.9550   -1.7800 C.3     1  UNL1       -0.0193
     41  C         11.7280   -2.8520   -2.2310 C.3     1  UNL1       -0.0257
     42  C         11.6790   -4.3240   -1.6080 C.3     1  UNL1       -0.0250
     43  C         12.5160   -1.0710   -0.4780 C.3     1  UNL1       -0.0028
     44  C         13.0960   -5.0190   -1.5560 C.3     1  UNL1       -0.0278
     45  C         14.2450   -2.8120   -1.6760 C.3     1  UNL1       -0.0463
     46  C         11.4800   -0.0630   -1.0470 C.2     1  UNL1       -0.0627
     47  C         14.1270   -4.0760   -0.8760 C.3     1  UNL1       -0.0486
     48  C         13.0560   -6.4920   -0.9010 C.3     1  UNL1       -0.0052
     49  C         11.6560    1.4760   -0.9860 C.3     1  UNL1       -0.0005
     50  C         10.3640   -2.0710   -2.0920 C.3     1  UNL1       -0.0306
     51  C         13.6840   -0.3830    0.2240 C.3     1  UNL1       -0.0162
     52  C         11.1020   -4.3360   -0.1450 C.3     1  UNL1       -0.0447
     53  C         12.8220    1.9620   -0.0390 C.3     1  UNL1        0.1033
     54  C         14.0580    1.0110   -0.1560 C.3     1  UNL1        0.0724
     55  C         13.3060   -1.0390   -3.0250 C.3     1  UNL1       -0.0585
     56  C         11.8530   -6.6630    0.1200 C.3     1  UNL1        0.0672
     57  C         10.5130   -0.5790   -1.8700 C.2     1  UNL1       -0.0836
     58  C         10.7740   -5.1620   -2.5550 C.3     1  UNL1       -0.0590
     59  C         11.6660   -5.3580    0.8630 C.3     1  UNL1       -0.0255
     60  C         11.9050   -1.8110    0.7460 C.3     1  UNL1       -0.0552
     61  C         10.3290    2.2340   -0.6840 C.3     1  UNL1       -0.0368
     62  C         12.3240    1.9250    1.4530 C.3     1  UNL1        0.0036
     63  C          9.8290    2.1340    0.7850 C.3     1  UNL1        0.0028
     64  C         10.9870    2.6440    1.7060 C.3     1  UNL1        0.1096
     65  C         12.9550   -7.5360   -2.0490 C.3     1  UNL1       -0.0572
     66  C         14.3800   -6.8440   -0.1620 C.3     1  UNL1       -0.0572
     67  C         13.3690    3.3690   -0.3810 C.2     1  UNL1        0.3188
     68  C          9.3430    0.7230    1.1620 C.3     1  UNL1       -0.0564
     69  C          8.5850    3.0340    0.9220 C.3     1  UNL1       -0.0564
     70  C          9.4650   -7.3450    0.0000 C.3     1  UNL1        0.1886
     71  C          9.4650   -8.3450    0.0000 C.3     1  UNL1        0.1406
     72  C         15.6540    4.3530   -0.7220 C.3     1  UNL1        0.2341
     73  C         10.4590    3.5160    3.9370 C.2     1  UNL1        0.3349
     74  C          8.5510   -9.0260    0.9000 C.3     1  UNL1        0.1144
     75  C          7.7330   -7.3450    0.0000 C.3     1  UNL1        0.1134
     76  C          7.7330   -8.3450    0.0000 C.3     1  UNL1        0.1119
     77  C         16.9830    3.5740   -0.4510 C.3     1  UNL1        0.1520
     78  C         10.7430    4.9010    3.5240 C.2     1  UNL1        0.0296
     79  C         18.1470    4.6050   -0.4480 C.3     1  UNL1        0.1155
     80  C         16.4760    5.8810    0.9520 C.3     1  UNL1        0.1144
     81  C          7.2510   -6.6480    1.3350 C.3     1  UNL1        0.0796
     82  C         17.6730    6.0080   -0.0140 C.3     1  UNL1        0.1120
     83  C         10.3520  -10.0870   -1.4210 C.3     1  UNL1        0.1881
     84  C         12.1550    5.3310    3.1940 C.3     1  UNL1       -0.0332
     85  C          9.6870    5.6760    3.2670 C.2     1  UNL1       -0.0742
     86  C         16.0320    7.2570    1.4440 C.3     1  UNL1        0.0796
     87  C         11.1970  -10.3450    0.0000 C.3     1  UNL1        0.1341
     88  C         18.1770    1.5530   -1.1230 C.3     1  UNL1        0.1882
     89  C         11.1970  -11.3450    0.0000 C.3     1  UNL1        0.1137
     90  C          9.8330    6.9550    2.5240 C.3     1  UNL1       -0.0311
     91  C         18.0240    0.7390    0.2150 C.3     1  UNL1        0.1341
     92  C         11.5490  -11.5680   -2.5930 C.3     1  UNL1        0.0792
     93  C          5.1350   -6.8450    0.0000 C.3     1  UNL1        0.1880
     94  C         12.1860  -11.8700   -1.2430 C.3     1  UNL1        0.1069
     95  C          9.4050    6.6760    1.0370 C.3     1  UNL1       -0.0168
     96  C         19.1460   -0.3160    0.2410 C.3     1  UNL1        0.1137
     97  C          5.1350   -5.8450    0.0000 C.3     1  UNL1        0.1341
     98  C         20.4050    1.8440   -0.3270 C.3     1  UNL1        0.0792
     99  C         20.5270    0.3630    0.1090 C.3     1  UNL1        0.1069
    100  C         15.7910    9.3770    0.5980 C.3     1  UNL1        0.1879
    101  C          9.3900    8.0420   -0.0000 C.3     1  UNL1        0.0879
    102  C          4.2210   -5.4080   -1.0430 C.3     1  UNL1        0.1141
    103  C          3.4030   -6.8450    0.0000 C.3     1  UNL1        0.1130
    104  C          3.4030   -5.8450    0.0000 C.3     1  UNL1        0.1119
    105  C         14.6590   10.1870   -0.0640 C.3     1  UNL1        0.1341
    106  C         14.9320   11.6870    0.1260 C.3     1  UNL1        0.1140
    107  C         10.3900    8.0490   -0.0000 C.3     1  UNL1       -0.0321
    108  C          8.3900    8.0340   -0.0000 C.2     1  UNL1       -0.0599
    109  C         17.3650   11.0720    0.2590 C.3     1  UNL1        0.0873
    110  C          2.0110   -7.3710    0.7250 C.3     1  UNL1        0.0730
    111  C         16.3310   12.0080   -0.4170 C.3     1  UNL1        0.1095
    112  C          8.8570   10.5780    0.3100 C.3     1  UNL1        0.1889
    113  C         18.7710   11.3340   -0.2850 C.3     1  UNL1       -0.0361
    114  C          7.2310    8.0920    0.7880 C.2     1  UNL1       -0.1000
    115  C          8.1690   11.3290    1.4840 C.3     1  UNL1        0.1341
    116  C          7.5390   12.6170    0.9500 C.3     1  UNL1        0.1141
    117  C          9.3380   12.5740   -0.8040 C.3     1  UNL1        0.1130
    118  C          8.6270   13.4470    0.2660 C.3     1  UNL1        0.1119
    119  C         10.4560   13.3820   -1.4690 C.3     1  UNL1        0.0730
    120  H         11.9080   -3.0290   -3.3140 H       1  UNL1        0.0315
    121  H         13.4880   -5.1250   -2.5940 H       1  UNL1        0.0312
    122  H         15.1030   -2.2060   -1.3280 H       1  UNL1        0.0271
    123  H         14.5510   -3.1560   -2.6920 H       1  UNL1        0.0271
    124  H         15.1370   -4.5320   -0.9150 H       1  UNL1        0.0268
    125  H         13.9340   -3.8460    0.1740 H       1  UNL1        0.0268
    126  H         11.9240    1.7470   -2.0310 H       1  UNL1        0.0357
    127  H          9.6520   -2.3150   -2.9090 H       1  UNL1        0.0310
    128  H          9.8250   -2.3830   -1.1910 H       1  UNL1        0.0310
    129  H         14.5250   -1.0580    0.4760 H       1  UNL1        0.0299
    130  H         14.5250   -1.0580    0.4760 H       1  UNL1        0.0299
    131  H          9.9900   -4.3630   -0.1670 H       1  UNL1        0.0271
    132  H          9.9900   -4.3630   -0.1670 H       1  UNL1        0.0271
    133  H         14.7810    1.3730    0.6070 H       1  UNL1        0.0605
    134  H         14.2860   -0.5610   -2.9290 H       1  UNL1        0.0235
    135  H         13.4480   -1.6480   -3.9440 H       1  UNL1        0.0235
    136  H         12.5500   -0.2880   -3.3170 H       1  UNL1        0.0235
    137  H         12.0610   -7.5140    0.7950 H       1  UNL1        0.0602
    138  H          9.8540    0.0690   -2.4350 H       1  UNL1        0.0572
    139  H          9.7360   -4.7700   -2.6010 H       1  UNL1        0.0235
    140  H         11.1900   -5.2230   -3.5830 H       1  UNL1        0.0235
    141  H          9.7360   -4.7700   -2.6010 H       1  UNL1        0.0235
    142  H         10.9880   -5.4040    1.7400 H       1  UNL1        0.0290
    143  H         12.6340   -5.0610    1.2960 H       1  UNL1        0.0290
    144  H         12.5430   -2.6210    1.1230 H       1  UNL1        0.0238
    145  H         11.8160   -1.1740    1.6420 H       1  UNL1        0.0238
    146  H         10.8650   -2.1170    0.6060 H       1  UNL1        0.0238
    147  H         10.5160    3.3070   -0.9080 H       1  UNL1        0.0278
    148  H          9.5200    1.9340   -1.3800 H       1  UNL1        0.0278
    149  H         12.1660    0.8950    1.7900 H       1  UNL1        0.0313
    150  H         13.1080    2.3480    2.1170 H       1  UNL1        0.0313
    151  H         11.1360    3.6980    1.4300 H       1  UNL1        0.0739
    152  H         14.3430   -7.8810    0.2360 H       1  UNL1        0.0236
    153  H         13.0060   -8.5660   -1.6680 H       1  UNL1        0.0236
    154  H         13.8100   -7.4230   -2.7510 H       1  UNL1        0.0236
    155  H         12.0280   -7.4330   -2.6450 H       1  UNL1        0.0236
    156  H         14.5620   -6.1780    0.7070 H       1  UNL1        0.0236
    157  H         15.2510   -6.7870   -0.8490 H       1  UNL1        0.0236
    158  H         14.1350    1.4250   -2.0830 H       1  UNL1        0.2098
    159  H         10.1410   -0.0020    1.1240 H       1  UNL1        0.0236
    160  H          8.9390    0.7070    2.1980 H       1  UNL1        0.0236
    161  H          8.5410    0.3840    0.4710 H       1  UNL1        0.0236
    162  H          8.2180    3.0710    1.9700 H       1  UNL1        0.0236
    163  H          7.7560    2.6710    0.2740 H       1  UNL1        0.0236
    164  H          8.8170    4.0470    0.5840 H       1  UNL1        0.0236
    165  H          9.6260   -6.8700    1.0520 H       1  UNL1        0.0938
    166  H          9.4650   -8.9650    0.0000 H       1  UNL1        0.0675
    167  H         15.7380    4.9060   -1.6830 H       1  UNL1        0.1085
    168  H          8.6360   -8.7360    1.9840 H       1  UNL1        0.0648
    169  H          7.7330   -6.7250    0.0000 H       1  UNL1        0.0647
    170  H          7.5880   -8.7330   -1.1090 H       1  UNL1        0.0647
    171  H         16.8270    3.1460    0.5630 H       1  UNL1        0.0687
    172  H         18.8720    4.2200    0.2910 H       1  UNL1        0.0648
    173  H         16.7980    5.2910    1.8390 H       1  UNL1        0.0647
    174  H          7.4410   -5.5320    1.4920 H       1  UNL1        0.0587
    175  H          7.5980   -7.0500    2.3070 H       1  UNL1        0.0587
    176  H         17.2910    6.5490   -0.9150 H       1  UNL1        0.0647
    177  H          9.4420  -10.7480   -1.5130 H       1  UNL1        0.0937
    178  H          7.8600  -10.7470    1.6260 H       1  UNL1        0.2100
    179  H          6.2610   -9.1190    1.2450 H       1  UNL1        0.2100
    180  H         12.8740    4.5110    3.4000 H       1  UNL1        0.0280
    181  H         12.2450    5.6200    2.1260 H       1  UNL1        0.0280
    182  H         12.4330    6.2050    3.8200 H       1  UNL1        0.0280
    183  H          8.6800    5.2940    3.4290 H       1  UNL1        0.0577
    184  H         15.2320    7.1340    2.2070 H       1  UNL1        0.0587
    185  H         15.2320    7.1340    2.2070 H       1  UNL1        0.0587
    186  H         12.1630   -9.7940   -0.1640 H       1  UNL1        0.0671
    187  H         18.0180    0.7820   -1.9090 H       1  UNL1        0.0937
    188  H         18.1060    4.8540   -2.3850 H       1  UNL1        0.2100
    189  H         18.7600    7.6150    0.1770 H       1  UNL1        0.2100
    190  H         11.1970  -11.9650    0.0000 H       1  UNL1        0.0647
    191  H          9.2280    7.7410    3.0200 H       1  UNL1        0.0309
    192  H          9.2280    7.7410    3.0200 H       1  UNL1        0.0309
    193  H         18.1290    1.3980    1.1020 H       1  UNL1        0.0671
    194  H         10.6700  -12.2280   -2.7840 H       1  UNL1        0.0587
    195  H         12.2810  -11.7400   -3.4110 H       1  UNL1        0.0587
    196  H          5.1350   -7.4650    0.0000 H       1  UNL1        0.0937
    197  H         13.1680  -11.3240   -1.2470 H       1  UNL1        0.0643
    198  H         11.6030   -9.4490    1.7870 H       1  UNL1        0.2101
    199  H          8.4480    6.0750    1.1290 H       1  UNL1        0.0299
    200  H         10.0640    5.8390    0.6630 H       1  UNL1        0.0299
    201  H         18.9980   -0.9670   -0.6550 H       1  UNL1        0.0647
    202  H          5.1350   -5.2250    0.0000 H       1  UNL1        0.0671
    203  H         20.0770    2.4420    0.5460 H       1  UNL1        0.0587
    204  H         21.4070    2.2360   -0.5980 H       1  UNL1        0.0587
    205  H         21.0280    0.4010    1.1020 H       1  UNL1        0.0643
    206  H         15.7930    9.6200    1.6940 H       1  UNL1        0.0937
    207  H         12.9480  -11.5740    1.1110 H       1  UNL1        0.2100
    208  H          4.1600   -5.9620   -2.0470 H       1  UNL1        0.0648
    209  H         16.7170   -0.5250   -0.4740 H       1  UNL1        0.2101
    210  H         13.2080  -13.3850   -0.5520 H       1  UNL1        0.2100
    211  H          3.4030   -7.4650    0.0000 H       1  UNL1        0.0647
    212  H          3.2800   -5.2130    1.0260 H       1  UNL1        0.0647
    213  H         14.6540    9.9540   -1.1530 H       1  UNL1        0.0671
    214  H         18.3960   -1.7880    1.2660 H       1  UNL1        0.2100
    215  H          6.8780   -4.8030   -0.5970 H       1  UNL1        0.2101
    216  H         14.9210   11.9360    1.2140 H       1  UNL1        0.0648
    217  H         10.7840    8.8500   -0.7100 H       1  UNL1        0.0260
    218  H         10.7890    7.2760   -0.7270 H       1  UNL1        0.0260
    219  H         11.1890    8.1040    0.8280 H       1  UNL1        0.0260
    220  H         20.9830   -0.2910   -1.6700 H       1  UNL1        0.2100
    221  H          8.0740    7.9550   -1.0460 H       1  UNL1        0.0594
    222  H         17.4010   11.2630    1.3570 H       1  UNL1        0.0621
    223  H          1.7060   -6.7250    1.5870 H       1  UNL1        0.0584
    224  H          1.1330   -7.3490    0.0290 H       1  UNL1        0.0584
    225  H         16.3260   11.8140   -1.5180 H       1  UNL1        0.0646
    226  H          4.8530   -3.7350   -1.8770 H       1  UNL1        0.2100
    227  H          1.8690   -4.5270   -0.2520 H       1  UNL1        0.2100
    228  H         13.4310    9.9880    1.4420 H       1  UNL1        0.2101
    229  H          8.0910   10.3890   -0.4810 H       1  UNL1        0.0938
    230  H         19.4960   10.6510    0.2060 H       1  UNL1        0.0255
    231  H         18.8020   11.1570   -1.3810 H       1  UNL1        0.0255
    232  H         19.0840   12.3790   -0.0770 H       1  UNL1        0.0255
    233  H          6.2530    8.0510    0.3170 H       1  UNL1        0.0533
    234  H          7.2590    8.1580    1.8680 H       1  UNL1        0.0533
    235  H         13.1580   12.4520    0.0150 H       1  UNL1        0.2100
    236  H          2.0290   -9.3050    0.4760 H       1  UNL1        0.2095
    237  H          8.9560   11.5630    2.2420 H       1  UNL1        0.0671
    238  H         17.1420   13.7020   -0.9260 H       1  UNL1        0.2100
    239  H          6.7620   12.3640    0.1870 H       1  UNL1        0.0648
    240  H          8.6140   12.2970   -1.6080 H       1  UNL1        0.0647
    241  H          9.3870   13.7590    1.0210 H       1  UNL1        0.0647
    242  H          7.1260   10.7820    3.0310 H       1  UNL1        0.2101
    243  H         11.1950   13.6920   -0.6970 H       1  UNL1        0.0584
    244  H         10.0180   14.2880   -1.9470 H       1  UNL1        0.0584
    245  H          6.0500   12.9880    2.1420 H       1  UNL1        0.2100
    246  H          7.8400   15.2190    0.3920 H       1  UNL1        0.2100
    247  H         11.7580   13.1940   -2.8720 H       1  UNL1        0.2095
@<TRIPOS>BOND
     1     1    56    1
     2     1    70    1
     3     2    54    1
     4     2   158    1
     5     3    64    1
     6     3    73    1
     7     4    67    1
     8     4    72    1
     9     5    67    2
    10     6    70    1
    11     6    75    1
    12     7    71    1
    13     7    83    1
    14     8    72    1
    15     8    80    1
    16     9    73    2
    17    10    74    1
    18    10   178    1
    19    11    77    1
    20    11    88    1
    21    12    76    1
    22    12   179    1
    23    13    79    1
    24    13   188    1
    25    14    81    1
    26    14    93    1
    27    15    83    1
    28    15    92    1
    29    16    82    1
    30    16   189    1
    31    17    86    1
    32    17   100    1
    33    18    88    1
    34    18    98    1
    35    19    87    1
    36    19   198    1
    37    20    89    1
    38    20   207    1
    39    21    93    1
    40    21   103    1
    41    22    91    1
    42    22   209    1
    43    23    94    1
    44    23   210    1
    45    24    96    1
    46    24   214    1
    47    25   100    1
    48    25   109    1
    49    26    97    1
    50    26   215    1
    51    27    99    1
    52    27   220    1
    53    28   101    1
    54    28   112    1
    55    29   102    1
    56    29   226    1
    57    30   104    1
    58    30   227    1
    59    31   105    1
    60    31   228    1
    61    32   106    1
    62    32   235    1
    63    33   110    1
    64    33   236    1
    65    34   111    1
    66    34   238    1
    67    35   112    1
    68    35   117    1
    69    36   115    1
    70    36   242    1
    71    37   116    1
    72    37   245    1
    73    38   118    1
    74    38   246    1
    75    39   119    1
    76    39   247    1
    77    40    41    1
    78    40    43    1
    79    40    45    1
    80    40    55    1
    81    41    42    1
    82    41    50    1
    83    41   120    1
    84    42    44    1
    85    42    52    1
    86    42    58    1
    87    43    46    1
    88    43    51    1
    89    43    60    1
    90    44    47    1
    91    44    48    1
    92    44   121    1
    93    45    47    1
    94    45   122    1
    95    45   123    1
    96    46    49    1
    97    46    57    2
    98    47   124    1
    99    47   125    1
   100    48    56    1
   101    48    65    1
   102    48    66    1
   103    49    53    1
   104    49    61    1
   105    49   126    1
   106    50    57    1
   107    50   127    1
   108    50   128    1
   109    51    54    1
   110    51   129    1
   111    51   130    1
   112    52    59    1
   113    52   131    1
   114    52   132    1
   115    53    54    1
   116    53    62    1
   117    53    67    1
   118    54   133    1
   119    55   134    1
   120    55   135    1
   121    55   136    1
   122    56    59    1
   123    56   137    1
   124    57   138    1
   125    58   139    1
   126    58   140    1
   127    58   141    1
   128    59   142    1
   129    59   143    1
   130    60   144    1
   131    60   145    1
   132    60   146    1
   133    61    63    1
   134    61   147    1
   135    61   148    1
   136    62    64    1
   137    62   149    1
   138    62   150    1
   139    63    64    1
   140    63    68    1
   141    63    69    1
   142    64   151    1
   143    65   153    1
   144    65   154    1
   145    65   155    1
   146    66   152    1
   147    66   156    1
   148    66   157    1
   149    68   159    1
   150    68   160    1
   151    68   161    1
   152    69   162    1
   153    69   163    1
   154    69   164    1
   155    70    71    1
   156    70   165    1
   157    71    74    1
   158    71   166    1
   159    72    77    1
   160    72   167    1
   161    73    78    1
   162    74    76    1
   163    74   168    1
   164    75    76    1
   165    75    81    1
   166    75   169    1
   167    76   170    1
   168    77    79    1
   169    77   171    1
   170    78    84    1
   171    78    85    2
   172    79    82    1
   173    79   172    1
   174    80    82    1
   175    80    86    1
   176    80   173    1
   177    81   174    1
   178    81   175    1
   179    82   176    1
   180    83    87    1
   181    83   177    1
   182    84   180    1
   183    84   181    1
   184    84   182    1
   185    85    90    1
   186    85   183    1
   187    86   184    1
   188    86   185    1
   189    87    89    1
   190    87   186    1
   191    88    91    1
   192    88   187    1
   193    89    94    1
   194    89   190    1
   195    90    95    1
   196    90   191    1
   197    90   192    1
   198    91    96    1
   199    91   193    1
   200    92    94    1
   201    92   194    1
   202    92   195    1
   203    93    97    1
   204    93   196    1
   205    94   197    1
   206    95   101    1
   207    95   199    1
   208    95   200    1
   209    96    99    1
   210    96   201    1
   211    97   102    1
   212    97   202    1
   213    98    99    1
   214    98   203    1
   215    98   204    1
   216    99   205    1
   217   100   105    1
   218   100   206    1
   219   101   107    1
   220   101   108    1
   221   102   104    1
   222   102   208    1
   223   103   104    1
   224   103   110    1
   225   103   211    1
   226   104   212    1
   227   105   106    1
   228   105   213    1
   229   106   111    1
   230   106   216    1
   231   107   217    1
   232   107   218    1
   233   107   219    1
   234   108   114    2
   235   108   221    1
   236   109   111    1
   237   109   113    1
   238   109   222    1
   239   110   223    1
   240   110   224    1
   241   111   225    1
   242   112   115    1
   243   112   229    1
   244   113   230    1
   245   113   231    1
   246   113   232    1
   247   114   233    1
   248   114   234    1
   249   115   116    1
   250   115   237    1
   251   116   118    1
   252   116   239    1
   253   117   118    1
   254   117   119    1
   255   117   240    1
   256   118   241    1
   257   119   243    1
   258   119   244    1
