@<TRIPOS>MOLECULE
./IMPHY000356.pdb
 264 276 0 0 0
SMALL
GASTEIGER

@<TRIPOS>ATOM
      1  O          9.7990   -6.9210   -1.3840 O.3     1  UNL1       -0.3449
      2  O         12.3360    0.9710    4.4680 O.3     1  UNL1       -0.3906
      3  O         10.1270    4.0650    0.7650 O.3     1  UNL1       -0.4575
      4  O         13.6200    2.3710    0.9300 O.3     1  UNL1       -0.4318
      5  O         13.1260    2.9800    3.0150 O.2     1  UNL1       -0.2500
      6  O          8.6110   -6.7680    0.7430 O.3     1  UNL1       -0.3405
      7  O          9.7890   -8.8130    1.3600 O.3     1  UNL1       -0.3378
      8  O         14.7750    4.0420   -0.2520 O.3     1  UNL1       -0.3312
      9  O         12.1900    4.4230    0.1710 O.2     1  UNL1       -0.2453
     10  O          8.4060  -10.5200   -0.7360 O.3     1  UNL1       -0.3864
     11  O         16.1660    1.2810   -0.1020 O.3     1  UNL1       -0.3366
     12  O          6.5170   -8.9840   -0.4120 O.3     1  UNL1       -0.3865
     13  O         18.4030    2.9330    1.6000 O.3     1  UNL1       -0.3863
     14  O          5.8750   -6.8660   -1.2730 O.3     1  UNL1       -0.3460
     15  O         11.3860   -9.9390    2.5720 O.3     1  UNL1       -0.3461
     16  O         18.1240    5.5530    0.5310 O.3     1  UNL1       -0.3865
     17  O         16.4070    7.3180   -0.7460 O.3     1  UNL1       -0.3461
     18  O         18.4100    0.8940   -0.6560 O.3     1  UNL1       -0.3461
     19  O         11.0110   -9.7690   -1.3180 O.3     1  UNL1       -0.3841
     20  O         12.0290  -11.8030   -1.1150 O.3     1  UNL1       -0.3864
     21  O          4.1970   -7.0900   -0.8550 O.3     1  UNL1       -0.3405
     22  O         16.2740   -0.9860   -1.6050 O.3     1  UNL1       -0.3841
     23  O         11.4700  -13.3680    1.5670 O.3     1  UNL1       -0.3869
     24  O         18.0190   -3.2030   -0.0980 O.3     1  UNL1       -0.3864
     25  O         17.5410    9.2850   -0.4790 O.3     1  UNL1       -0.3431
     26  O          6.2470   -5.5460    0.8740 O.3     1  UNL1       -0.3841
     27  O         20.5850   -2.0040    0.1810 O.3     1  UNL1       -0.3869
     28  O          9.2410    9.3560   -0.7640 O.3     1  UNL1       -0.3384
     29  O          4.1420   -3.9900    1.3470 O.3     1  UNL1       -0.3864
     30  O          2.1840   -5.3970    0.6450 O.3     1  UNL1       -0.3865
     31  O         13.8980    8.8230   -0.2960 O.3     1  UNL1       -0.3841
     32  O         14.1040   11.6400   -0.4780 O.3     1  UNL1       -0.3864
     33  O          2.1050   -8.6880   -1.2300 O.3     1  UNL1       -0.3924
     34  O         16.6230   12.7420    0.3090 O.3     1  UNL1       -0.3866
     35  O          9.5770   11.4430    0.3990 O.3     1  UNL1       -0.3405
     36  O          6.1670   10.1520   -0.4710 O.3     1  UNL1       -0.3378
     37  O          5.6050   12.3240    1.3490 O.3     1  UNL1       -0.3864
     38  O          7.5510   14.3530    1.3800 O.3     1  UNL1       -0.3865
     39  O          3.9020   10.5970   -0.1240 O.3     1  UNL1       -0.3461
     40  O         11.4630   13.5460    0.2520 O.3     1  UNL1       -0.3924
     41  O          4.9630    7.8830   -1.3480 O.3     1  UNL1       -0.3841
     42  O          2.9850    6.5930    0.6200 O.3     1  UNL1       -0.3864
     43  O          1.2850    8.6400    1.6650 O.3     1  UNL1       -0.3869
     44  C         12.6070   -2.7590    0.8810 C.3     1  UNL1       -0.0193
     45  C         11.3430   -3.2950    0.1020 C.3     1  UNL1       -0.0257
     46  C         11.2690   -3.0600   -1.5180 C.3     1  UNL1       -0.0250
     47  C         12.4590   -1.1530    1.1520 C.3     1  UNL1       -0.0028
     48  C         12.3570   -4.0280   -2.0340 C.3     1  UNL1       -0.0278
     49  C         13.8420   -3.3880    0.0880 C.3     1  UNL1       -0.0463
     50  C         11.0050   -0.7010    0.9220 C.2     1  UNL1       -0.0627
     51  C         13.7440   -3.5440   -1.4760 C.3     1  UNL1       -0.0486
     52  C         11.9090   -5.5790   -1.8160 C.3     1  UNL1       -0.0052
     53  C         10.6220    0.7240    1.1420 C.3     1  UNL1       -0.0005
     54  C         10.0700   -2.9530    0.8100 C.3     1  UNL1       -0.0306
     55  C         12.7210   -0.6730    2.6630 C.3     1  UNL1       -0.0162
     56  C          9.8800   -3.3850   -2.2350 C.3     1  UNL1       -0.0447
     57  C         11.4150    1.5570    2.2210 C.3     1  UNL1        0.1033
     58  C         11.7890    0.4460    3.2840 C.3     1  UNL1        0.0724
     59  C         12.7010   -3.4310    2.3010 C.3     1  UNL1       -0.0585
     60  C         10.3260   -5.6460   -1.4870 C.3     1  UNL1        0.0672
     61  C          9.9440   -1.5330    0.7350 C.2     1  UNL1       -0.0836
     62  C         11.4710   -1.6030   -2.0430 C.3     1  UNL1       -0.0590
     63  C          9.5460   -4.8450   -2.4750 C.3     1  UNL1       -0.0255
     64  C         13.4260   -0.3500    0.2430 C.3     1  UNL1       -0.0552
     65  C          9.8520    1.4240    0.0020 C.3     1  UNL1       -0.0368
     66  C         10.2810    2.5640    2.7370 C.3     1  UNL1        0.0036
     67  C          8.7010    2.2700    0.6150 C.3     1  UNL1        0.0028
     68  C          9.3950    3.2520    1.5920 C.3     1  UNL1        0.1096
     69  C         12.2500   -6.3490   -3.1290 C.3     1  UNL1       -0.0572
     70  C         12.7020   -6.3630   -0.7310 C.3     1  UNL1       -0.0572
     71  C         12.7730    2.3470    2.0270 C.2     1  UNL1        0.3188
     72  C          7.9860    3.0150   -0.5460 C.3     1  UNL1       -0.0564
     73  C          7.5700    1.4470    1.3200 C.3     1  UNL1       -0.0564
     74  C          9.4650   -7.3450    0.0000 C.3     1  UNL1        0.1886
     75  C          9.4650   -8.3450    0.0000 C.3     1  UNL1        0.1406
     76  C         14.8080    3.1510    0.8600 C.3     1  UNL1        0.2341
     77  C         11.3230    4.5840    1.0110 C.2     1  UNL1        0.3349
     78  C          8.5570   -9.0730   -0.8720 C.3     1  UNL1        0.1144
     79  C          7.7330   -7.3450    0.0000 C.3     1  UNL1        0.1134
     80  C          7.7330   -8.3450    0.0000 C.3     1  UNL1        0.1119
     81  C         16.1330    2.3080    0.8890 C.3     1  UNL1        0.1520
     82  C         11.4630    5.6720    1.9830 C.2     1  UNL1        0.0296
     83  C         17.3660    3.2570    0.7090 C.3     1  UNL1        0.1155
     84  C         15.8860    4.9670   -0.3210 C.3     1  UNL1        0.1144
     85  C          7.2230   -6.6790   -1.3450 C.3     1  UNL1        0.0796
     86  C         16.9960    4.7420    0.7590 C.3     1  UNL1        0.1120
     87  C         11.0770   -9.3750    1.3150 C.3     1  UNL1        0.1881
     88  C         12.8190    6.2690    2.1990 C.3     1  UNL1       -0.0332
     89  C         10.3190    6.2520    2.4000 C.2     1  UNL1       -0.0742
     90  C         15.3900    6.4290   -0.3050 C.3     1  UNL1        0.0796
     91  C         11.1970  -10.3450    0.0000 C.3     1  UNL1        0.1341
     92  C         17.2970    0.4180    0.0770 C.3     1  UNL1        0.1882
     93  C         11.1970  -11.3450    0.0000 C.3     1  UNL1        0.1137
     94  C         10.2660    7.6790    2.7850 C.3     1  UNL1       -0.0311
     95  C         16.9610   -1.0210   -0.3820 C.3     1  UNL1        0.1341
     96  C         11.0120  -11.2810    2.5890 C.3     1  UNL1        0.0792
     97  C          5.1350   -6.8450    0.0000 C.3     1  UNL1        0.1880
     98  C         11.7060  -11.9700    1.4280 C.3     1  UNL1        0.1069
     99  C          9.3210    8.3560    1.7250 C.3     1  UNL1       -0.0168
    100  C         18.2490   -1.8880   -0.5340 C.3     1  UNL1        0.1137
    101  C          5.1350   -5.8450    0.0000 C.3     1  UNL1        0.1341
    102  C         19.6140    0.1790   -0.3490 C.3     1  UNL1        0.0792
    103  C         19.4020   -1.2470    0.2440 C.3     1  UNL1        0.1069
    104  C         16.3440    8.6010   -0.1250 C.3     1  UNL1        0.1879
    105  C          9.3900    8.0420   -0.0000 C.3     1  UNL1        0.0879
    106  C          4.2260   -5.4080    1.0400 C.3     1  UNL1        0.1141
    107  C          3.4030   -6.8450    0.0000 C.3     1  UNL1        0.1130
    108  C          3.4030   -5.8450    0.0000 C.3     1  UNL1        0.1119
    109  C         15.1200    9.4300   -0.6210 C.3     1  UNL1        0.1341
    110  C         15.1730   10.8510   -0.0180 C.3     1  UNL1        0.1140
    111  C         10.3900    8.0490   -0.0000 C.3     1  UNL1       -0.0321
    112  C          8.3900    8.0340   -0.0000 C.2     1  UNL1       -0.0599
    113  C         17.6400   10.5510    0.1620 C.3     1  UNL1        0.0873
    114  C          2.0080   -7.3670   -0.7200 C.3     1  UNL1        0.0730
    115  C         16.5240   11.4970   -0.3350 C.3     1  UNL1        0.1095
    116  C          8.6370   10.6750   -0.3480 C.3     1  UNL1        0.1893
    117  C         19.0150   11.1460   -0.1540 C.3     1  UNL1       -0.0361
    118  C          7.9010    6.8010   -0.3650 C.2     1  UNL1       -0.1000
    119  C          7.1720   10.7810    0.3400 C.3     1  UNL1        0.1406
    120  C          6.7720   12.2490    0.5640 C.3     1  UNL1        0.1144
    121  C          9.1870   12.8220    0.4460 C.3     1  UNL1        0.1130
    122  C          7.8950   12.9930    1.2750 C.3     1  UNL1        0.1119
    123  C         10.3170   13.6610    1.0490 C.3     1  UNL1        0.0730
    124  C          4.9850    9.7650    0.2500 C.3     1  UNL1        0.1881
    125  C          4.6380    8.2700   -0.0370 C.3     1  UNL1        0.1341
    126  C          3.1490    7.9380    0.2460 C.3     1  UNL1        0.1137
    127  C          2.7160   10.3480    0.6500 C.3     1  UNL1        0.0792
    128  C          2.6090    8.9270    1.2830 C.3     1  UNL1        0.1069
    129  H         11.4390   -4.3380    0.3380 H       1  UNL1        0.0315
    130  H         12.3830   -3.8630   -3.1360 H       1  UNL1        0.0312
    131  H         14.7970   -2.9440    0.4090 H       1  UNL1        0.0271
    132  H         13.9500   -4.4330    0.4150 H       1  UNL1        0.0271
    133  H         14.5600   -4.2020   -1.8470 H       1  UNL1        0.0268
    134  H         13.9510   -2.5700   -1.9400 H       1  UNL1        0.0268
    135  H          9.7960    0.4520    1.8080 H       1  UNL1        0.0357
    136  H         10.1070   -3.2430    1.8750 H       1  UNL1        0.0310
    137  H          9.1530   -3.4500    0.4390 H       1  UNL1        0.0310
    138  H         13.8010   -0.5270    2.8780 H       1  UNL1        0.0299
    139  H         13.8010   -0.5270    2.8780 H       1  UNL1        0.0299
    140  H          9.7730   -2.9300   -3.2480 H       1  UNL1        0.0271
    141  H          9.0600   -2.9090   -1.6640 H       1  UNL1        0.0271
    142  H         10.8410   -0.0720    3.5680 H       1  UNL1        0.0605
    143  H         13.6640   -3.1580    2.7850 H       1  UNL1        0.0235
    144  H         12.6730   -4.5400    2.2480 H       1  UNL1        0.0235
    145  H         11.8950   -3.1230    2.9940 H       1  UNL1        0.0235
    146  H          9.9780   -5.1680   -0.5850 H       1  UNL1        0.0602
    147  H          8.9260   -1.1660    0.6190 H       1  UNL1        0.0572
    148  H         12.4000   -1.1200   -1.8380 H       1  UNL1        0.0235
    149  H         10.6550   -0.9350   -1.7260 H       1  UNL1        0.0235
    150  H         11.4710   -1.5870   -3.1550 H       1  UNL1        0.0235
    151  H          9.7860   -5.1770   -3.5050 H       1  UNL1        0.0290
    152  H          9.7860   -5.1770   -3.5050 H       1  UNL1        0.0290
    153  H         14.3330   -0.0480    0.7890 H       1  UNL1        0.0238
    154  H         12.9400    0.5210   -0.2340 H       1  UNL1        0.0238
    155  H         13.9010   -0.9290   -0.5450 H       1  UNL1        0.0238
    156  H          9.3960    0.6970   -0.7030 H       1  UNL1        0.0278
    157  H          9.3960    0.6970   -0.7030 H       1  UNL1        0.0278
    158  H          9.5540    1.9890    3.3510 H       1  UNL1        0.0313
    159  H         10.6910    3.3150    3.4430 H       1  UNL1        0.0313
    160  H          8.5840    3.8430    2.0650 H       1  UNL1        0.0739
    161  H         11.9120   -7.4060   -3.0730 H       1  UNL1        0.0236
    162  H         12.4110   -7.4300   -0.7500 H       1  UNL1        0.0236
    163  H         12.5400   -6.0560    0.3120 H       1  UNL1        0.0236
    164  H         13.7920   -6.3360   -0.9400 H       1  UNL1        0.0236
    165  H         13.3470   -6.3430   -3.3080 H       1  UNL1        0.0236
    166  H         11.7970   -5.9050   -4.0360 H       1  UNL1        0.0236
    167  H         12.3150    0.2420    5.1420 H       1  UNL1        0.2098
    168  H          6.7560    2.1280    1.6490 H       1  UNL1        0.0236
    169  H          7.1290    0.7130    0.6100 H       1  UNL1        0.0236
    170  H          7.8570    0.8940    2.2310 H       1  UNL1        0.0236
    171  H          8.6940    3.6100   -1.1590 H       1  UNL1        0.0236
    172  H          7.1970    3.6940   -0.1540 H       1  UNL1        0.0236
    173  H          7.4980    2.2890   -1.2350 H       1  UNL1        0.0236
    174  H         10.4060   -6.9850    0.5150 H       1  UNL1        0.0938
    175  H          9.4650   -8.9650    0.0000 H       1  UNL1        0.0675
    176  H         14.8490    3.7810    1.7680 H       1  UNL1        0.1085
    177  H          8.5900   -8.8280   -1.9700 H       1  UNL1        0.0648
    178  H          7.7330   -6.7250    0.0000 H       1  UNL1        0.0647
    179  H          7.5910   -8.6600    1.1390 H       1  UNL1        0.0647
    180  H         16.1120    1.8570    1.9090 H       1  UNL1        0.0687
    181  H         17.7490    3.1340   -0.3260 H       1  UNL1        0.0648
    182  H         16.3420    4.7900   -1.3200 H       1  UNL1        0.0647
    183  H          7.3630   -5.5630   -1.5060 H       1  UNL1        0.0587
    184  H          7.5590   -7.1060   -2.3120 H       1  UNL1        0.0587
    185  H         16.6150    4.9930    1.7720 H       1  UNL1        0.0647
    186  H         11.7800   -8.5080    1.2260 H       1  UNL1        0.0937
    187  H          7.8100  -10.8200   -1.4700 H       1  UNL1        0.2100
    188  H          6.2550   -9.7530    0.1720 H       1  UNL1        0.2100
    189  H         13.0210    6.3690    3.2840 H       1  UNL1        0.0280
    190  H         12.8950    7.2420    1.6940 H       1  UNL1        0.0280
    191  H         13.5850    5.5980    1.7910 H       1  UNL1        0.0280
    192  H          9.3460    5.8270    2.2030 H       1  UNL1        0.0577
    193  H         14.5390    6.5060   -1.0140 H       1  UNL1        0.0587
    194  H         15.0550    6.6660    0.7190 H       1  UNL1        0.0587
    195  H         12.3180  -10.1170    0.1350 H       1  UNL1        0.0671
    196  H         17.5710    0.3650    1.1600 H       1  UNL1        0.0937
    197  H         18.0630    3.1080    2.5160 H       1  UNL1        0.2100
    198  H         18.4790    5.3380   -0.3710 H       1  UNL1        0.2100
    199  H         11.1970  -11.9650    0.0000 H       1  UNL1        0.0647
    200  H         11.2540    8.1730    2.7510 H       1  UNL1        0.0309
    201  H          9.8730    7.8130    3.8160 H       1  UNL1        0.0309
    202  H         16.3060   -1.4110    0.4200 H       1  UNL1        0.0671
    203  H          9.9040  -11.3940    2.5410 H       1  UNL1        0.0587
    204  H         11.3630  -11.7270    3.5450 H       1  UNL1        0.0587
    205  H          5.1350   -7.4650    0.0000 H       1  UNL1        0.0937
    206  H         12.8050  -11.7900    1.5760 H       1  UNL1        0.0643
    207  H         11.8670   -9.4370   -1.7060 H       1  UNL1        0.2101
    208  H          9.4300    9.4500    1.9300 H       1  UNL1        0.0299
    209  H          8.3270    8.1310    2.2380 H       1  UNL1        0.0299
    210  H         18.5830   -1.8910   -1.6000 H       1  UNL1        0.0647
    211  H          5.1350   -5.2250    0.0000 H       1  UNL1        0.0671
    212  H         20.2700    0.7800    0.3150 H       1  UNL1        0.0587
    213  H         20.1390    0.0580   -1.3210 H       1  UNL1        0.0587
    214  H         19.1040   -1.1860    1.3130 H       1  UNL1        0.0643
    215  H         16.3270    8.4750    0.9850 H       1  UNL1        0.0937
    216  H         13.0100  -11.8520   -0.8850 H       1  UNL1        0.2100
    217  H          4.1770   -5.9700    2.0400 H       1  UNL1        0.0648
    218  H         16.0900   -1.9270   -1.8550 H       1  UNL1        0.2101
    219  H         12.1830  -13.8290    1.0520 H       1  UNL1        0.2100
    220  H          3.4030   -7.4650    0.0000 H       1  UNL1        0.0647
    221  H          3.2770   -5.2120   -1.0260 H       1  UNL1        0.0647
    222  H         15.1830    9.5100   -1.7280 H       1  UNL1        0.0671
    223  H         17.5180   -3.6600   -0.8220 H       1  UNL1        0.2100
    224  H          6.8780   -4.7980    0.5860 H       1  UNL1        0.2101
    225  H         15.0850   10.7710    1.0900 H       1  UNL1        0.0648
    226  H         10.8240    7.0880    0.2330 H       1  UNL1        0.0260
    227  H         11.0900    8.8890    0.3370 H       1  UNL1        0.0260
    228  H         10.7710    7.8760   -1.0540 H       1  UNL1        0.0260
    229  H         20.8050   -2.1450   -0.7770 H       1  UNL1        0.2100
    230  H          7.5200    8.5590    0.3130 H       1  UNL1        0.0594
    231  H         17.5840   10.4290    1.2690 H       1  UNL1        0.0621
    232  H          1.1610   -7.3690    0.0150 H       1  UNL1        0.0584
    233  H          1.7040   -6.7120   -1.5800 H       1  UNL1        0.0584
    234  H         16.6380   11.6230   -1.4390 H       1  UNL1        0.0646
    235  H          3.9690   -3.4650    0.5190 H       1  UNL1        0.2100
    236  H          1.8460   -4.5500    0.2380 H       1  UNL1        0.2100
    237  H         13.7800    8.9190    0.6830 H       1  UNL1        0.2101
    238  H          8.4920   11.1790   -1.3300 H       1  UNL1        0.0938
    239  H         19.8140   10.4640    0.2060 H       1  UNL1        0.0255
    240  H         19.1340   11.2880   -1.2500 H       1  UNL1        0.0255
    241  H         19.1430   12.1280    0.3500 H       1  UNL1        0.0255
    242  H          6.8460    6.5710   -0.3400 H       1  UNL1        0.0533
    243  H          8.5230    5.9500   -0.6670 H       1  UNL1        0.0533
    244  H         14.1660   11.6830   -1.4680 H       1  UNL1        0.2100
    245  H          7.2530   10.3250    1.3550 H       1  UNL1        0.0675
    246  H          1.2170   -8.9080   -1.6150 H       1  UNL1        0.2095
    247  H         16.1130   13.3920   -0.2420 H       1  UNL1        0.2100
    248  H          6.6060   12.7140   -0.4380 H       1  UNL1        0.0648
    249  H          9.0230   13.2240   -0.5830 H       1  UNL1        0.0647
    250  H          8.0710   12.5680    2.2930 H       1  UNL1        0.0647
    251  H         10.5400   13.3220    2.0830 H       1  UNL1        0.0584
    252  H          9.9870   14.7280    1.0780 H       1  UNL1        0.0584
    253  H          5.1170    9.8670    1.3560 H       1  UNL1        0.0937
    254  H          4.9890   12.9710    0.9180 H       1  UNL1        0.2100
    255  H          6.9070   14.4330    2.1330 H       1  UNL1        0.2100
    256  H          5.2760    7.7030    0.6710 H       1  UNL1        0.0671
    257  H         12.0020   14.3620    0.4190 H       1  UNL1        0.2095
    258  H          2.5460    8.1100   -0.6750 H       1  UNL1        0.0647
    259  H          2.5760   11.1250    1.4310 H       1  UNL1        0.0587
    260  H          1.8730   10.4440   -0.0680 H       1  UNL1        0.0587
    261  H          3.2460    8.8520    2.1910 H       1  UNL1        0.0643
    262  H          4.4920    8.5020   -1.9640 H       1  UNL1        0.2101
    263  H          3.3740    6.4840    1.5270 H       1  UNL1        0.2100
    264  H          0.7380    8.5590    0.8400 H       1  UNL1        0.2100
@<TRIPOS>BOND
     1     1    60    1
     2     1    74    1
     3     2    58    1
     4     2   167    1
     5     3    68    1
     6     3    77    1
     7     4    71    1
     8     4    76    1
     9     5    71    2
    10     6    74    1
    11     6    79    1
    12     7    75    1
    13     7    87    1
    14     8    76    1
    15     8    84    1
    16     9    77    2
    17    10    78    1
    18    10   187    1
    19    11    81    1
    20    11    92    1
    21    12    80    1
    22    12   188    1
    23    13    83    1
    24    13   197    1
    25    14    85    1
    26    14    97    1
    27    15    87    1
    28    15    96    1
    29    16    86    1
    30    16   198    1
    31    17    90    1
    32    17   104    1
    33    18    92    1
    34    18   102    1
    35    19    91    1
    36    19   207    1
    37    20    93    1
    38    20   216    1
    39    21    97    1
    40    21   107    1
    41    22    95    1
    42    22   218    1
    43    23    98    1
    44    23   219    1
    45    24   100    1
    46    24   223    1
    47    25   104    1
    48    25   113    1
    49    26   101    1
    50    26   224    1
    51    27   103    1
    52    27   229    1
    53    28   105    1
    54    28   116    1
    55    29   106    1
    56    29   235    1
    57    30   108    1
    58    30   236    1
    59    31   109    1
    60    31   237    1
    61    32   110    1
    62    32   244    1
    63    33   114    1
    64    33   246    1
    65    34   115    1
    66    34   247    1
    67    35   116    1
    68    35   121    1
    69    36   119    1
    70    36   124    1
    71    37   120    1
    72    37   254    1
    73    38   122    1
    74    38   255    1
    75    39   124    1
    76    39   127    1
    77    40   123    1
    78    40   257    1
    79    41   125    1
    80    41   262    1
    81    42   126    1
    82    42   263    1
    83    43   128    1
    84    43   264    1
    85    44    45    1
    86    44    47    1
    87    44    49    1
    88    44    59    1
    89    45    46    1
    90    45    54    1
    91    45   129    1
    92    46    48    1
    93    46    56    1
    94    46    62    1
    95    47    50    1
    96    47    55    1
    97    47    64    1
    98    48    51    1
    99    48    52    1
   100    48   130    1
   101    49    51    1
   102    49   131    1
   103    49   132    1
   104    50    53    1
   105    50    61    2
   106    51   133    1
   107    51   134    1
   108    52    60    1
   109    52    69    1
   110    52    70    1
   111    53    57    1
   112    53    65    1
   113    53   135    1
   114    54    61    1
   115    54   136    1
   116    54   137    1
   117    55    58    1
   118    55   138    1
   119    55   139    1
   120    56    63    1
   121    56   140    1
   122    56   141    1
   123    57    58    1
   124    57    66    1
   125    57    71    1
   126    58   142    1
   127    59   143    1
   128    59   144    1
   129    59   145    1
   130    60    63    1
   131    60   146    1
   132    61   147    1
   133    62   148    1
   134    62   149    1
   135    62   150    1
   136    63   151    1
   137    63   152    1
   138    64   153    1
   139    64   154    1
   140    64   155    1
   141    65    67    1
   142    65   156    1
   143    65   157    1
   144    66    68    1
   145    66   158    1
   146    66   159    1
   147    67    68    1
   148    67    72    1
   149    67    73    1
   150    68   160    1
   151    69   161    1
   152    69   165    1
   153    69   166    1
   154    70   162    1
   155    70   163    1
   156    70   164    1
   157    72   171    1
   158    72   172    1
   159    72   173    1
   160    73   168    1
   161    73   169    1
   162    73   170    1
   163    74    75    1
   164    74   174    1
   165    75    78    1
   166    75   175    1
   167    76    81    1
   168    76   176    1
   169    77    82    1
   170    78    80    1
   171    78   177    1
   172    79    80    1
   173    79    85    1
   174    79   178    1
   175    80   179    1
   176    81    83    1
   177    81   180    1
   178    82    88    1
   179    82    89    2
   180    83    86    1
   181    83   181    1
   182    84    86    1
   183    84    90    1
   184    84   182    1
   185    85   183    1
   186    85   184    1
   187    86   185    1
   188    87    91    1
   189    87   186    1
   190    88   189    1
   191    88   190    1
   192    88   191    1
   193    89    94    1
   194    89   192    1
   195    90   193    1
   196    90   194    1
   197    91    93    1
   198    91   195    1
   199    92    95    1
   200    92   196    1
   201    93    98    1
   202    93   199    1
   203    94    99    1
   204    94   200    1
   205    94   201    1
   206    95   100    1
   207    95   202    1
   208    96    98    1
   209    96   203    1
   210    96   204    1
   211    97   101    1
   212    97   205    1
   213    98   206    1
   214    99   105    1
   215    99   208    1
   216    99   209    1
   217   100   103    1
   218   100   210    1
   219   101   106    1
   220   101   211    1
   221   102   103    1
   222   102   212    1
   223   102   213    1
   224   103   214    1
   225   104   109    1
   226   104   215    1
   227   105   111    1
   228   105   112    1
   229   106   108    1
   230   106   217    1
   231   107   108    1
   232   107   114    1
   233   107   220    1
   234   108   221    1
   235   109   110    1
   236   109   222    1
   237   110   115    1
   238   110   225    1
   239   111   226    1
   240   111   227    1
   241   111   228    1
   242   112   118    2
   243   112   230    1
   244   113   115    1
   245   113   117    1
   246   113   231    1
   247   114   232    1
   248   114   233    1
   249   115   234    1
   250   116   119    1
   251   116   238    1
   252   117   239    1
   253   117   240    1
   254   117   241    1
   255   118   242    1
   256   118   243    1
   257   119   120    1
   258   119   245    1
   259   120   122    1
   260   120   248    1
   261   121   122    1
   262   121   123    1
   263   121   249    1
   264   122   250    1
   265   123   251    1
   266   123   252    1
   267   124   125    1
   268   124   253    1
   269   125   126    1
   270   125   256    1
   271   126   128    1
   272   126   258    1
   273   127   128    1
   274   127   259    1
   275   127   260    1
   276   128   261    1
