@<TRIPOS>MOLECULE
./IMPHY000031.pdb
 137 136 0 0 0
SMALL
GASTEIGER

@<TRIPOS>ATOM
      1  O         16.8400    7.6100    1.1060 O.3     1  UNL1       -0.4544
      2  O         13.8980    8.0340    1.2790 O.3     1  UNL1       -0.4608
      3  O         15.3250    5.3870    0.8310 O.3     1  UNL1       -0.4608
      4  O         18.7460    7.3890    2.2320 O.2     1  UNL1       -0.2508
      5  O         11.7430    7.9820    1.8790 O.2     1  UNL1       -0.2509
      6  O         15.0320    3.5490    2.0200 O.2     1  UNL1       -0.2509
      7  C         24.1840    4.2860   -0.8700 C.3     1  UNL1       -0.0531
      8  C         25.4300    5.1710   -0.7380 C.3     1  UNL1       -0.0531
      9  C          7.5040    5.1620   -0.4150 C.3     1  UNL1       -0.0531
     10  C         12.3800   -2.1640    0.9010 C.3     1  UNL1       -0.0531
     11  C          6.1700    4.5910    0.0980 C.3     1  UNL1       -0.0531
     12  C         11.3180   -2.8500    0.0320 C.3     1  UNL1       -0.0531
     13  C         22.8560    5.0540   -0.8690 C.3     1  UNL1       -0.0531
     14  C         26.6930    4.3120   -0.9220 C.3     1  UNL1       -0.0531
     15  C          8.3970    4.0220   -0.9320 C.3     1  UNL1       -0.0531
     16  C         12.5620   -0.6750    0.5830 C.3     1  UNL1       -0.0531
     17  C          5.1180    5.6880    0.3130 C.3     1  UNL1       -0.0531
     18  C         11.1650   -4.3150    0.4570 C.3     1  UNL1       -0.0531
     19  C         22.5770    5.8620    0.4190 C.3     1  UNL1       -0.0530
     20  C         28.0050    5.1030   -0.8150 C.3     1  UNL1       -0.0531
     21  C          9.5600    4.5020   -1.8090 C.3     1  UNL1       -0.0530
     22  C         13.2900   -0.4210   -0.7510 C.3     1  UNL1       -0.0530
     23  C          3.7380    5.0620    0.5670 C.3     1  UNL1       -0.0531
     24  C         10.0040   -4.9990   -0.2720 C.3     1  UNL1       -0.0531
     25  C         21.1820    6.5250    0.3960 C.3     1  UNL1       -0.0526
     26  C         28.2770    5.6150    0.6110 C.3     1  UNL1       -0.0531
     27  C         10.8530    4.9440   -1.1210 C.3     1  UNL1       -0.0526
     28  C         13.4980    1.0760   -1.0640 C.3     1  UNL1       -0.0526
     29  C          2.6310    6.1220    0.5760 C.3     1  UNL1       -0.0531
     30  C          9.8790   -6.4600    0.1780 C.3     1  UNL1       -0.0531
     31  C         20.0510    5.4910    0.5450 C.3     1  UNL1       -0.0430
     32  C         29.6000    6.3900    0.7370 C.3     1  UNL1       -0.0533
     33  C         10.8230    6.1540   -0.1650 C.3     1  UNL1       -0.0430
     34  C         14.1960    1.8310    0.0770 C.3     1  UNL1       -0.0430
     35  C          1.2490    5.4610    0.6740 C.3     1  UNL1       -0.0533
     36  C          8.6640   -7.1390   -0.4610 C.3     1  UNL1       -0.0533
     37  C         18.6430    6.0440    0.2880 C.3     1  UNL1        0.0450
     38  C         12.2910    6.5670    0.0590 C.3     1  UNL1        0.0449
     39  C         14.5250    3.2840   -0.2900 C.3     1  UNL1        0.0449
     40  C         30.8410    5.5340    0.4350 C.3     1  UNL1       -0.0559
     41  C          0.1280    6.5020    0.5880 C.3     1  UNL1       -0.0559
     42  C          8.5580   -8.6000   -0.0060 C.3     1  UNL1       -0.0559
     43  C         15.9780    7.5270    0.0110 C.3     1  UNL1        0.1706
     44  C         18.0850    7.0600    1.2610 C.2     1  UNL1        0.3075
     45  C         14.7350    8.4250    0.2370 C.3     1  UNL1        0.1325
     46  C         15.5730    6.0810   -0.3340 C.3     1  UNL1        0.1325
     47  C         12.6110    7.5990    1.1110 C.2     1  UNL1        0.3072
     48  C         14.9880    4.0770    0.9180 C.2     1  UNL1        0.3072
     49  C         32.1220    6.3320    0.6580 C.3     1  UNL1       -0.0653
     50  C         -1.2440    5.8340    0.6280 C.3     1  UNL1       -0.0653
     51  C          7.3260   -9.2750   -0.5990 C.3     1  UNL1       -0.0653
     52  H         24.2360    3.7410   -1.8390 H       1  UNL1        0.0265
     53  H         24.1770    3.5330   -0.0510 H       1  UNL1        0.0265
     54  H         25.4250    5.6500    0.2610 H       1  UNL1        0.0265
     55  H         25.4140    5.9590   -1.5220 H       1  UNL1        0.0265
     56  H         12.0390   -2.2360    1.9580 H       1  UNL1        0.0265
     57  H         13.3580   -2.6860    0.8200 H       1  UNL1        0.0265
     58  H          8.0060    5.7750    0.3600 H       1  UNL1        0.0265
     59  H          7.2690    5.8150   -1.2840 H       1  UNL1        0.0265
     60  H          6.3230    3.9920    1.0220 H       1  UNL1        0.0265
     61  H          5.7680    3.9180   -0.6920 H       1  UNL1        0.0265
     62  H         11.5910   -2.8060   -1.0440 H       1  UNL1        0.0265
     63  H         10.3500   -2.3210    0.1790 H       1  UNL1        0.0265
     64  H         22.0780    4.2830   -1.0200 H       1  UNL1        0.0265
     65  H         22.8270    5.7430   -1.7420 H       1  UNL1        0.0265
     66  H         26.7070    3.4800   -0.1840 H       1  UNL1        0.0265
     67  H         26.6540    3.8660   -1.9410 H       1  UNL1        0.0265
     68  H         13.1930   -0.2720    1.4020 H       1  UNL1        0.0265
     69  H         11.5790   -0.1560    0.6070 H       1  UNL1        0.0265
     70  H          8.7360    3.3360   -0.1260 H       1  UNL1        0.0265
     71  H          7.7610    3.4290   -1.6260 H       1  UNL1        0.0265
     72  H          5.0490    6.2850   -0.6240 H       1  UNL1        0.0265
     73  H          5.4130    6.3640    1.1440 H       1  UNL1        0.0265
     74  H         10.9600   -4.3590    1.5500 H       1  UNL1        0.0265
     75  H         12.1150   -4.8560    0.2510 H       1  UNL1        0.0265
     76  H         22.6670    5.2170    1.3200 H       1  UNL1        0.0265
     77  H         23.3380    6.6680    0.4890 H       1  UNL1        0.0265
     78  H         27.9950    5.9480   -1.5370 H       1  UNL1        0.0265
     79  H         28.8160    4.4040   -1.1040 H       1  UNL1        0.0265
     80  H          9.8670    3.6270   -2.4260 H       1  UNL1        0.0265
     81  H          9.2040    5.2820   -2.5180 H       1  UNL1        0.0265
     82  H         14.2860   -0.9140   -0.7040 H       1  UNL1        0.0265
     83  H         12.7220   -0.8670   -1.5940 H       1  UNL1        0.0265
     84  H          3.5190    4.3560   -0.2640 H       1  UNL1        0.0265
     85  H          3.7430    4.4930    1.5230 H       1  UNL1        0.0265
     86  H         10.1670   -4.9600   -1.3710 H       1  UNL1        0.0265
     87  H          9.0630   -4.4580   -0.0280 H       1  UNL1        0.0265
     88  H         21.1090    7.2430    1.2400 H       1  UNL1        0.0265
     89  H         21.0740    7.0950   -0.5520 H       1  UNL1        0.0265
     90  H         27.4640    6.3050    0.9160 H       1  UNL1        0.0265
     91  H         28.2890    4.7560    1.3170 H       1  UNL1        0.0265
     92  H         11.2790    4.0770   -0.5690 H       1  UNL1        0.0265
     93  H         11.5420    5.1790   -1.9640 H       1  UNL1        0.0265
     94  H         12.5130    1.5570   -1.2550 H       1  UNL1        0.0265
     95  H         14.1070    1.1480   -1.9920 H       1  UNL1        0.0265
     96  H         10.8060   -7.0080   -0.1020 H       1  UNL1        0.0265
     97  H          2.6760    6.6930   -0.3790 H       1  UNL1        0.0265
     98  H          2.7840    6.8270    1.4220 H       1  UNL1        0.0265
     99  H          9.7640   -6.4950    1.2840 H       1  UNL1        0.0265
    100  H         20.1050    5.0080    1.5450 H       1  UNL1        0.0270
    101  H         20.1720    4.6990   -0.2170 H       1  UNL1        0.0270
    102  H         29.6720    6.7540    1.7850 H       1  UNL1        0.0265
    103  H         29.5770    7.2730    0.0620 H       1  UNL1        0.0265
    104  H         10.3300    5.8590    0.7850 H       1  UNL1        0.0270
    105  H         10.2800    7.0120   -0.6180 H       1  UNL1        0.0270
    106  H         15.1390    1.3150    0.3650 H       1  UNL1        0.0270
    107  H         13.5020    1.8480    0.9440 H       1  UNL1        0.0270
    108  H          1.1320    4.7460   -0.1720 H       1  UNL1        0.0265
    109  H          1.1710    4.8980    1.6300 H       1  UNL1        0.0265
    110  H          8.7540   -7.1030   -1.5690 H       1  UNL1        0.0265
    111  H          7.7440   -6.5930   -0.1570 H       1  UNL1        0.0265
    112  H         17.9920    5.1510    0.3500 H       1  UNL1        0.0377
    113  H         18.6180    6.4720   -0.7370 H       1  UNL1        0.0377
    114  H         12.8530    5.6700    0.3650 H       1  UNL1        0.0377
    115  H         12.6550    6.9270   -0.9230 H       1  UNL1        0.0377
    116  H         15.3040    3.2930   -1.0820 H       1  UNL1        0.0377
    117  H         13.6150    3.7720   -0.6900 H       1  UNL1        0.0377
    118  H         30.8310    5.1950   -0.6220 H       1  UNL1        0.0263
    119  H         30.8530    4.6440    1.1000 H       1  UNL1        0.0263
    120  H          0.2130    7.2170    1.4350 H       1  UNL1        0.0263
    121  H          0.2170    7.0660   -0.3670 H       1  UNL1        0.0263
    122  H          8.4870   -8.6440    1.1030 H       1  UNL1        0.0263
    123  H          9.4660   -9.1560   -0.3260 H       1  UNL1        0.0263
    124  H         16.4870    7.9600   -0.8790 H       1  UNL1        0.0803
    125  H         14.1720    8.4840   -0.7180 H       1  UNL1        0.0736
    126  H         15.0800    9.4610    0.4420 H       1  UNL1        0.0736
    127  H         14.7200    6.0580   -1.0390 H       1  UNL1        0.0736
    128  H         16.3800    5.5790   -0.8930 H       1  UNL1        0.0736
    129  H         33.0020    5.6940    0.4300 H       1  UNL1        0.0230
    130  H         32.1890    6.6660    1.7160 H       1  UNL1        0.0230
    131  H         32.1440    7.2210   -0.0080 H       1  UNL1        0.0230
    132  H         -2.0370    6.6080    0.5560 H       1  UNL1        0.0230
    133  H         -1.3560    5.1330   -0.2270 H       1  UNL1        0.0230
    134  H         -1.3740    5.2740    1.5780 H       1  UNL1        0.0230
    135  H          7.3740   -9.2620   -1.7090 H       1  UNL1        0.0230
    136  H          6.4040   -8.7530   -0.2660 H       1  UNL1        0.0230
    137  H          7.2800  -10.3300   -0.2560 H       1  UNL1        0.0230
@<TRIPOS>BOND
     1     1    43    1
     2     1    44    1
     3     2    45    1
     4     2    47    1
     5     3    46    1
     6     3    48    1
     7     4    44    2
     8     5    47    2
     9     6    48    2
    10     7     8    1
    11     7    13    1
    12     7    52    1
    13     7    53    1
    14     8    14    1
    15     8    54    1
    16     8    55    1
    17     9    11    1
    18     9    15    1
    19     9    58    1
    20     9    59    1
    21    10    12    1
    22    10    16    1
    23    10    56    1
    24    10    57    1
    25    11    17    1
    26    11    60    1
    27    11    61    1
    28    12    18    1
    29    12    62    1
    30    12    63    1
    31    13    19    1
    32    13    64    1
    33    13    65    1
    34    14    20    1
    35    14    66    1
    36    14    67    1
    37    15    21    1
    38    15    70    1
    39    15    71    1
    40    16    22    1
    41    16    68    1
    42    16    69    1
    43    17    23    1
    44    17    72    1
    45    17    73    1
    46    18    24    1
    47    18    74    1
    48    18    75    1
    49    19    25    1
    50    19    76    1
    51    19    77    1
    52    20    26    1
    53    20    78    1
    54    20    79    1
    55    21    27    1
    56    21    80    1
    57    21    81    1
    58    22    28    1
    59    22    82    1
    60    22    83    1
    61    23    29    1
    62    23    84    1
    63    23    85    1
    64    24    30    1
    65    24    86    1
    66    24    87    1
    67    25    31    1
    68    25    88    1
    69    25    89    1
    70    26    32    1
    71    26    90    1
    72    26    91    1
    73    27    33    1
    74    27    92    1
    75    27    93    1
    76    28    34    1
    77    28    94    1
    78    28    95    1
    79    29    35    1
    80    29    97    1
    81    29    98    1
    82    30    36    1
    83    30    96    1
    84    30    99    1
    85    31    37    1
    86    31   100    1
    87    31   101    1
    88    32    40    1
    89    32   102    1
    90    32   103    1
    91    33    38    1
    92    33   104    1
    93    33   105    1
    94    34    39    1
    95    34   106    1
    96    34   107    1
    97    35    41    1
    98    35   108    1
    99    35   109    1
   100    36    42    1
   101    36   110    1
   102    36   111    1
   103    37    44    1
   104    37   112    1
   105    37   113    1
   106    38    47    1
   107    38   114    1
   108    38   115    1
   109    39    48    1
   110    39   116    1
   111    39   117    1
   112    40    49    1
   113    40   118    1
   114    40   119    1
   115    41    50    1
   116    41   120    1
   117    41   121    1
   118    42    51    1
   119    42   122    1
   120    42   123    1
   121    43    45    1
   122    43    46    1
   123    43   124    1
   124    45   125    1
   125    45   126    1
   126    46   127    1
   127    46   128    1
   128    49   129    1
   129    49   130    1
   130    49   131    1
   131    50   132    1
   132    50   133    1
   133    50   134    1
   134    51   135    1
   135    51   136    1
   136    51   137    1
