REMARK  Name = IMPHY000413
REMARK  56 active torsions:
REMARK  status: ('A' for Active; 'I' for Inactive)
REMARK    1  A    between atoms: O_1  and  C_45
REMARK    2  A    between atoms: O_1  and  C_48
REMARK    3  A    between atoms: O_4  and  C_50
REMARK    4  A    between atoms: O_4  and  C_57
REMARK    5  A    between atoms: O_5  and  C_46
REMARK    6  A    between atoms: O_6  and  C_47
REMARK    7  A    between atoms: O_7  and  C_49
REMARK    8  A    between atoms: O_8  and  C_52
REMARK    9  A    between atoms: O_9  and  C_53
REMARK   10  A    between atoms: O_10  and  C_55
REMARK   11  A    between atoms: O_10  and  C_66
REMARK   12  A    between atoms: O_11  and  C_56
REMARK   13  A    between atoms: O_11  and  C_67
REMARK   14  A    between atoms: O_14  and  C_63
REMARK   15  A    between atoms: O_14  and  C_70
REMARK   16  A    between atoms: O_17  and  C_60
REMARK   17  A    between atoms: O_18  and  C_61
REMARK   18  A    between atoms: O_19  and  C_62
REMARK   19  A    between atoms: O_21  and  C_79
REMARK   20  A    between atoms: O_21  and  C_101
REMARK   21  A    between atoms: O_22  and  C_69
REMARK   22  A    between atoms: O_23  and  C_71
REMARK   23  A    between atoms: O_24  and  C_73
REMARK   24  A    between atoms: O_26  and  C_85
REMARK   25  A    between atoms: O_26  and  C_102
REMARK   26  A    between atoms: O_27  and  C_75
REMARK   27  A    between atoms: O_28  and  C_76
REMARK   28  A    between atoms: O_30  and  C_77
REMARK   29  A    between atoms: O_31  and  C_78
REMARK   30  A    between atoms: O_32  and  C_80
REMARK   31  A    between atoms: O_33  and  C_86
REMARK   32  A    between atoms: O_33  and  C_107
REMARK   33  A    between atoms: O_34  and  C_82
REMARK   34  A    between atoms: O_35  and  C_84
REMARK   35  A    between atoms: O_36  and  C_89
REMARK   36  A    between atoms: O_36  and  C_114
REMARK   37  A    between atoms: O_37  and  C_92
REMARK   38  A    between atoms: O_38  and  C_93
REMARK   39  A    between atoms: O_39  and  C_96
REMARK   40  A    between atoms: O_40  and  C_99
REMARK   41  A    between atoms: O_41  and  C_105
REMARK   42  A    between atoms: O_42  and  C_112
REMARK   43  A    between atoms: O_43  and  C_117
REMARK   44  A    between atoms: C_51  and  C_55
REMARK   45  A    between atoms: C_54  and  C_56
REMARK   46  A    between atoms: C_58  and  C_74
REMARK   47  A    between atoms: C_64  and  C_82
REMARK   48  A    between atoms: C_66  and  C_90
REMARK   49  A    between atoms: C_67  and  C_91
REMARK   50  A    between atoms: C_72  and  C_89
REMARK   51  A    between atoms: C_81  and  C_93
REMARK   52  A    between atoms: C_83  and  C_96
REMARK   53  A    between atoms: C_97  and  C_103
REMARK   54  A    between atoms: C_98  and  C_104
REMARK   55  A    between atoms: C_114  and  C_119
REMARK   56  A    between atoms: C_118  and  C_121
REMARK                            x       y       z     vdW  Elec       q    Type
REMARK                         _______ _______ _______ _____ _____    ______ ____
ROOT
ATOM      1  O   UNL     1      18.991  -4.000   0.000  0.00  0.00    +0.000 OA
ATOM      2  C   UNL     1      18.125  -5.500   0.000  0.00  0.00    +0.000 C 
ATOM      3  C   UNL     1      17.259  -5.000   0.000  0.00  0.00    +0.000 C 
ATOM      4  C   UNL     1      17.259  -4.000   0.000  0.00  0.00    +0.000 C 
ATOM      5  C   UNL     1      18.991  -5.000   0.000  0.00  0.00    +0.000 C 
ATOM      6  C   UNL     1      18.125  -3.500   0.000  0.00  0.00    +0.000 C 
ENDROOT
BRANCH   4   7
ATOM      7  O   UNL     1      16.393  -3.500   0.000  0.00  0.00    +0.000 OA
ATOM      8  H   UNL     1      16.393  -2.880   0.000  0.00  0.00    +0.000 HD
ENDBRANCH   4   7
BRANCH   3   9
ATOM      9  O   UNL     1      16.393  -5.500   0.000  0.00  0.00    +0.000 OA
ATOM     10  H   UNL     1      15.856  -5.190   0.000  0.00  0.00    +0.000 HD
ENDBRANCH   3   9
BRANCH   2  11
ATOM     11  O   UNL     1      18.125  -6.500   0.000  0.00  0.00    +0.000 OA
BRANCH  11  13
ATOM     12  O   UNL     1      16.393  -6.500   0.000  0.00  0.00    +0.000 OA
ATOM     13  C   UNL     1      17.259  -7.000   0.000  0.00  0.00    +0.000 C 
ATOM     14  C   UNL     1      17.259  -8.000   0.000  0.00  0.00    +0.000 C 
ATOM     15  C   UNL     1      16.393  -8.500   0.000  0.00  0.00    +0.000 C 
ATOM     16  C   UNL     1      15.527  -8.000   0.000  0.00  0.00    +0.000 C 
ATOM     17  C   UNL     1      15.527  -7.000   0.000  0.00  0.00    +0.000 C 
BRANCH  16  18
ATOM     18  O   UNL     1      14.661  -8.500   0.000  0.00  0.00    +0.000 OA
ATOM     19  H   UNL     1      14.661  -9.120   0.000  0.00  0.00    +0.000 HD
ENDBRANCH  16  18
BRANCH  15  20
ATOM     20  O   UNL     1      16.393  -9.500   0.000  0.00  0.00    +0.000 OA
ATOM     21  H   UNL     1      15.856  -9.810   0.000  0.00  0.00    +0.000 HD
ENDBRANCH  15  20
BRANCH  14  22
ATOM     22  O   UNL     1      18.125  -8.500   0.000  0.00  0.00    +0.000 OA
ATOM     23  H   UNL     1      18.125  -9.120   0.000  0.00  0.00    +0.000 HD
ENDBRANCH  14  22
BRANCH  17  24
ATOM     24  C   UNL     1      14.661  -6.500   0.000  0.00  0.00    +0.000 C 
BRANCH  24  25
ATOM     25  O   UNL     1      13.795  -7.000   0.000  0.00  0.00    +0.000 OA
BRANCH  25  27
ATOM     26  O   UNL     1      12.929  -5.500   0.000  0.00  0.00    +0.000 OA
ATOM     27  C   UNL     1      12.929  -6.500   0.000  0.00  0.00    +0.000 C 
BRANCH  27  28
ATOM     28  C   UNL     1      12.063  -7.000   0.000  0.00  0.00    +0.000 C 
ATOM     29  C   UNL     1      11.197  -6.500   0.000  0.00  0.00    +0.000 C 
BRANCH  29  31
ATOM     30  C   UNL     1       8.599  -7.000   0.000  0.00  0.00    +0.000 A 
ATOM     31  C   UNL     1      10.331  -7.000   0.000  0.00  0.00    +0.000 A 
ATOM     32  C   UNL     1       9.465  -6.500   0.000  0.00  0.00    +0.000 A 
ATOM     33  C   UNL     1       8.599  -8.000   0.000  0.00  0.00    +0.000 A 
ATOM     34  C   UNL     1      10.331  -8.000   0.000  0.00  0.00    +0.000 A 
ATOM     35  C   UNL     1       9.465  -8.500   0.000  0.00  0.00    +0.000 A 
BRANCH  33  36
ATOM     36  O   UNL     1       7.733  -8.500   0.000  0.00  0.00    +0.000 OA
ATOM     37  H   UNL     1       7.733  -9.120   0.000  0.00  0.00    +0.000 HD
ENDBRANCH  33  36
BRANCH  30  38
ATOM     38  O   UNL     1       7.733  -6.500   0.000  0.00  0.00    +0.000 OA
BRANCH  38  44
ATOM     39  O   UNL     1       6.867  -5.000   0.000  0.00  0.00    +0.000 OA
ATOM     40  C   UNL     1       8.599  -4.000   0.000  0.00  0.00    +0.000 C 
ATOM     41  C   UNL     1       7.733  -3.500   0.000  0.00  0.00    +0.000 C 
ATOM     42  C   UNL     1       8.599  -5.000   0.000  0.00  0.00    +0.000 C 
ATOM     43  C   UNL     1       6.867  -4.000   0.000  0.00  0.00    +0.000 C 
ATOM     44  C   UNL     1       7.733  -5.500   0.000  0.00  0.00    +0.000 C 
BRANCH  42  45
ATOM     45  O   UNL     1       9.465  -5.500   0.000  0.00  0.00    +0.000 OA
ATOM     46  H   UNL     1      10.002  -5.190   0.000  0.00  0.00    +0.000 HD
ENDBRANCH  42  45
BRANCH  41  47
ATOM     47  O   UNL     1       7.733  -2.500   0.000  0.00  0.00    +0.000 OA
ATOM     48  H   UNL     1       7.196  -2.190   0.000  0.00  0.00    +0.000 HD
ENDBRANCH  41  47
BRANCH  40  49
ATOM     49  O   UNL     1       9.465  -3.500   0.000  0.00  0.00    +0.000 OA
ATOM     50  H   UNL     1       9.465  -2.880   0.000  0.00  0.00    +0.000 HD
ENDBRANCH  40  49
BRANCH  43  51
ATOM     51  C   UNL     1       6.001  -3.500   0.000  0.00  0.00    +0.000 C 
BRANCH  51  52
ATOM     52  O   UNL     1       5.135  -4.000   0.000  0.00  0.00    +0.000 OA
ATOM     53  H   UNL     1       4.598  -3.690   0.000  0.00  0.00    +0.000 HD
ENDBRANCH  51  52
ENDBRANCH  43  51
ENDBRANCH  38  44
ENDBRANCH  30  38
ENDBRANCH  29  31
ENDBRANCH  27  28
ENDBRANCH  25  27
ENDBRANCH  24  25
ENDBRANCH  17  24
ENDBRANCH  11  13
ENDBRANCH   2  11
BRANCH   5  54
ATOM     54  O   UNL     1      19.857  -5.500   0.000  0.00  0.00    +0.000 OA
BRANCH  54  56
ATOM     55  O   UNL     1      22.456  -5.000   0.000  0.00  0.00    +0.000 OA
ATOM     56  C   UNL     1      20.724  -5.000   0.000  0.00  0.00    +0.000 A 
ATOM     57  C   UNL     1      21.590  -5.500   0.000  0.00  0.00    +0.000 A 
ATOM     58  C   UNL     1      20.724  -4.000   0.000  0.00  0.00    +0.000 A 
ATOM     59  C   UNL     1      21.590  -3.500   0.000  0.00  0.00    +0.000 A 
ATOM     60  C   UNL     1      22.456  -4.000   0.000  0.00  0.00    +0.000 A 
ATOM     61  C   UNL     1      21.573  -2.458   0.000  0.00  0.00    +0.000 A 
ATOM     62  C   UNL     1      23.366  -3.493   0.000  0.00  0.00    +0.000 A 
ATOM     63  C   UNL     1      22.471  -1.931   0.000  0.00  0.00    +0.000 A 
ATOM     64  C   UNL     1      23.374  -2.452   0.000  0.00  0.00    +0.000 A 
BRANCH  57  65
ATOM     65  C   UNL     1      21.590  -6.500   0.000  0.00  0.00    +0.000 A 
ATOM     66  C   UNL     1      22.456  -7.000   0.000  0.00  0.00    +0.000 A 
ATOM     67  C   UNL     1      20.724  -7.000   0.000  0.00  0.00    +0.000 A 
ATOM     68  C   UNL     1      22.456  -8.000   0.000  0.00  0.00    +0.000 A 
ATOM     69  C   UNL     1      20.724  -8.000   0.000  0.00  0.00    +0.000 A 
ATOM     70  C   UNL     1      21.590  -8.500   0.000  0.00  0.00    +0.000 A 
BRANCH  68  71
ATOM     71  O   UNL     1      23.322  -8.500   0.000  0.00  0.00    +0.000 OA
ATOM     72  H   UNL     1      23.858  -8.190   0.000  0.00  0.00    +0.000 HD
ENDBRANCH  68  71
BRANCH  70  73
ATOM     73  O   UNL     1      21.590  -9.500   0.000  0.00  0.00    +0.000 OA
ATOM     74  H   UNL     1      21.053  -9.810   0.000  0.00  0.00    +0.000 HD
ENDBRANCH  70  73
ENDBRANCH  57  65
BRANCH  64  75
ATOM     75  O   UNL     1      24.241  -1.955   0.000  0.00  0.00    +0.000 OA
ATOM     76  H   UNL     1      24.777  -2.267   0.000  0.00  0.00    +0.000 HD
ENDBRANCH  64  75
BRANCH  61  77
ATOM     77  O   UNL     1      20.702  -1.968   0.000  0.00  0.00    +0.000 OA
BRANCH  77  82
ATOM     78  O   UNL     1      19.818  -0.479   0.000  0.00  0.00    +0.000 OA
ATOM     79  C   UNL     1      21.539   0.541   0.000  0.00  0.00    +0.000 C 
ATOM     80  C   UNL     1      21.550  -0.459   0.000  0.00  0.00    +0.000 C 
ATOM     81  C   UNL     1      20.667   1.031   0.000  0.00  0.00    +0.000 C 
ATOM     82  C   UNL     1      20.690  -0.969   0.000  0.00  0.00    +0.000 C 
ATOM     83  C   UNL     1      19.807   0.521   0.000  0.00  0.00    +0.000 C 
BRANCH  79  84
ATOM     84  O   UNL     1      22.399   1.051   0.000  0.00  0.00    +0.000 OA
ATOM     85  H   UNL     1      22.392   1.671   0.000  0.00  0.00    +0.000 HD
ENDBRANCH  79  84
BRANCH  80  86
ATOM     86  O   UNL     1      22.422  -0.949   0.000  0.00  0.00    +0.000 OA
ATOM     87  H   UNL     1      22.955  -0.632   0.000  0.00  0.00    +0.000 HD
ENDBRANCH  80  86
BRANCH  81  88
ATOM     88  O   UNL     1      20.655   2.031   0.000  0.00  0.00    +0.000 OA
ATOM     89  H   UNL     1      21.189   2.347   0.000  0.00  0.00    +0.000 HD
ENDBRANCH  81  88
BRANCH  83  90
ATOM     90  C   UNL     1      18.935   1.011   0.000  0.00  0.00    +0.000 C 
BRANCH  90  91
ATOM     91  O   UNL     1      18.924   2.011   0.000  0.00  0.00    +0.000 OA
ATOM     92  H   UNL     1      18.383   2.315   0.000  0.00  0.00    +0.000 HD
ENDBRANCH  90  91
ENDBRANCH  83  90
ENDBRANCH  77  82
ENDBRANCH  61  77
ENDBRANCH  54  56
ENDBRANCH   5  54
BRANCH   6  93
ATOM     93  C   UNL     1      18.125  -2.500   0.000  0.00  0.00    +0.000 C 
BRANCH  93  94
ATOM     94  O   UNL     1      17.259  -2.000   0.000  0.00  0.00    +0.000 OA
BRANCH  94  96
ATOM     95  O   UNL     1      18.125  -0.500   0.000  0.00  0.00    +0.000 OA
ATOM     96  C   UNL     1      17.259  -1.000   0.000  0.00  0.00    +0.000 C 
BRANCH  96  97
ATOM     97  C   UNL     1      16.393  -0.500   0.000  0.00  0.00    +0.000 C 
ATOM     98  C   UNL     1      16.393   0.500   0.000  0.00  0.00    +0.000 C 
BRANCH  98 100
ATOM     99  C   UNL     1      13.795   2.000   0.000  0.00  0.00    +0.000 A 
ATOM    100  C   UNL     1      15.527   1.000   0.000  0.00  0.00    +0.000 A 
ATOM    101  C   UNL     1      13.795   1.000   0.000  0.00  0.00    +0.000 A 
ATOM    102  C   UNL     1      14.661   2.500   0.000  0.00  0.00    +0.000 A 
ATOM    103  C   UNL     1      14.661   0.500   0.000  0.00  0.00    +0.000 A 
ATOM    104  C   UNL     1      15.527   2.000   0.000  0.00  0.00    +0.000 A 
BRANCH  99 105
ATOM    105  O   UNL     1      12.929   2.500   0.000  0.00  0.00    +0.000 OA
BRANCH 105 111
ATOM    106  O   UNL     1      12.063   4.000   0.000  0.00  0.00    +0.000 OA
ATOM    107  C   UNL     1      12.929   5.500   0.000  0.00  0.00    +0.000 C 
ATOM    108  C   UNL     1      13.795   5.000   0.000  0.00  0.00    +0.000 C 
ATOM    109  C   UNL     1      12.063   5.000   0.000  0.00  0.00    +0.000 C 
ATOM    110  C   UNL     1      13.795   4.000   0.000  0.00  0.00    +0.000 C 
ATOM    111  C   UNL     1      12.929   3.500   0.000  0.00  0.00    +0.000 C 
BRANCH 107 112
ATOM    112  O   UNL     1      12.929   6.500   0.000  0.00  0.00    +0.000 OA
ATOM    113  H   UNL     1      12.392   6.810   0.000  0.00  0.00    +0.000 HD
ENDBRANCH 107 112
BRANCH 108 114
ATOM    114  O   UNL     1      14.661   5.500   0.000  0.00  0.00    +0.000 OA
ATOM    115  H   UNL     1      14.661   6.120   0.000  0.00  0.00    +0.000 HD
ENDBRANCH 108 114
BRANCH 110 116
ATOM    116  O   UNL     1      14.661   3.500   0.000  0.00  0.00    +0.000 OA
ATOM    117  H   UNL     1      15.198   3.810   0.000  0.00  0.00    +0.000 HD
ENDBRANCH 110 116
BRANCH 109 118
ATOM    118  C   UNL     1      11.197   5.500   0.000  0.00  0.00    +0.000 C 
BRANCH 118 119
ATOM    119  O   UNL     1      10.331   5.000   0.000  0.00  0.00    +0.000 OA
BRANCH 119 121
ATOM    120  O   UNL     1       9.465   6.500   0.000  0.00  0.00    +0.000 OA
ATOM    121  C   UNL     1       9.465   5.500   0.000  0.00  0.00    +0.000 C 
BRANCH 121 122
ATOM    122  C   UNL     1       8.599   5.000   0.000  0.00  0.00    +0.000 C 
ATOM    123  C   UNL     1       7.733   5.500   0.000  0.00  0.00    +0.000 C 
BRANCH 123 127
ATOM    124  C   UNL     1       5.135   5.000   0.000  0.00  0.00    +0.000 A 
ATOM    125  C   UNL     1       6.001   5.500   0.000  0.00  0.00    +0.000 A 
ATOM    126  C   UNL     1       5.135   4.000   0.000  0.00  0.00    +0.000 A 
ATOM    127  C   UNL     1       6.867   5.000   0.000  0.00  0.00    +0.000 A 
ATOM    128  C   UNL     1       6.001   3.500   0.000  0.00  0.00    +0.000 A 
ATOM    129  C   UNL     1       6.867   4.000   0.000  0.00  0.00    +0.000 A 
BRANCH 126 130
ATOM    130  O   UNL     1       4.269   3.500   0.000  0.00  0.00    +0.000 OA
ATOM    131  H   UNL     1       4.269   2.880   0.000  0.00  0.00    +0.000 HD
ENDBRANCH 126 130
BRANCH 124 132
ATOM    132  O   UNL     1       4.269   5.500   0.000  0.00  0.00    +0.000 OA
BRANCH 132 138
ATOM    133  O   UNL     1       5.135   7.000   0.000  0.00  0.00    +0.000 OA
ATOM    134  C   UNL     1       4.269   8.500   0.000  0.00  0.00    +0.000 C 
ATOM    135  C   UNL     1       3.403   8.000   0.000  0.00  0.00    +0.000 C 
ATOM    136  C   UNL     1       5.135   8.000   0.000  0.00  0.00    +0.000 C 
ATOM    137  C   UNL     1       3.403   7.000   0.000  0.00  0.00    +0.000 C 
ATOM    138  C   UNL     1       4.269   6.500   0.000  0.00  0.00    +0.000 C 
BRANCH 134 139
ATOM    139  O   UNL     1       4.269   9.500   0.000  0.00  0.00    +0.000 OA
ATOM    140  H   UNL     1       3.732   9.810   0.000  0.00  0.00    +0.000 HD
ENDBRANCH 134 139
BRANCH 135 141
ATOM    141  O   UNL     1       2.537   8.500   0.000  0.00  0.00    +0.000 OA
ATOM    142  H   UNL     1       2.537   9.120   0.000  0.00  0.00    +0.000 HD
ENDBRANCH 135 141
BRANCH 137 143
ATOM    143  O   UNL     1       2.537   6.500   0.000  0.00  0.00    +0.000 OA
ATOM    144  H   UNL     1       2.000   6.810   0.000  0.00  0.00    +0.000 HD
ENDBRANCH 137 143
BRANCH 136 145
ATOM    145  C   UNL     1       6.001   8.500   0.000  0.00  0.00    +0.000 C 
BRANCH 145 146
ATOM    146  O   UNL     1       6.001   9.500   0.000  0.00  0.00    +0.000 OA
ATOM    147  H   UNL     1       6.538   9.810   0.000  0.00  0.00    +0.000 HD
ENDBRANCH 145 146
ENDBRANCH 136 145
ENDBRANCH 132 138
ENDBRANCH 124 132
ENDBRANCH 123 127
ENDBRANCH 121 122
ENDBRANCH 119 121
ENDBRANCH 118 119
ENDBRANCH 109 118
ENDBRANCH 105 111
ENDBRANCH  99 105
ENDBRANCH  98 100
ENDBRANCH  96  97
ENDBRANCH  94  96
ENDBRANCH  93  94
ENDBRANCH   6  93
TORSDOF 56
