REMARK  Name = IMPHY000031
REMARK  47 active torsions:
REMARK  status: ('A' for Active; 'I' for Inactive)
REMARK    1  A    between atoms: O_1  and  C_43
REMARK    2  A    between atoms: O_1  and  C_44
REMARK    3  A    between atoms: O_2  and  C_45
REMARK    4  A    between atoms: O_2  and  C_47
REMARK    5  A    between atoms: O_3  and  C_46
REMARK    6  A    between atoms: O_3  and  C_48
REMARK    7  A    between atoms: C_7  and  C_8
REMARK    8  A    between atoms: C_7  and  C_13
REMARK    9  A    between atoms: C_8  and  C_14
REMARK   10  A    between atoms: C_9  and  C_11
REMARK   11  A    between atoms: C_9  and  C_15
REMARK   12  A    between atoms: C_10  and  C_12
REMARK   13  A    between atoms: C_10  and  C_16
REMARK   14  A    between atoms: C_11  and  C_17
REMARK   15  A    between atoms: C_12  and  C_18
REMARK   16  A    between atoms: C_13  and  C_19
REMARK   17  A    between atoms: C_14  and  C_20
REMARK   18  A    between atoms: C_15  and  C_21
REMARK   19  A    between atoms: C_16  and  C_22
REMARK   20  A    between atoms: C_17  and  C_23
REMARK   21  A    between atoms: C_18  and  C_24
REMARK   22  A    between atoms: C_19  and  C_25
REMARK   23  A    between atoms: C_20  and  C_26
REMARK   24  A    between atoms: C_21  and  C_27
REMARK   25  A    between atoms: C_22  and  C_28
REMARK   26  A    between atoms: C_23  and  C_29
REMARK   27  A    between atoms: C_24  and  C_30
REMARK   28  A    between atoms: C_25  and  C_31
REMARK   29  A    between atoms: C_26  and  C_32
REMARK   30  A    between atoms: C_27  and  C_33
REMARK   31  A    between atoms: C_28  and  C_34
REMARK   32  A    between atoms: C_29  and  C_35
REMARK   33  A    between atoms: C_30  and  C_36
REMARK   34  A    between atoms: C_31  and  C_37
REMARK   35  A    between atoms: C_32  and  C_40
REMARK   36  A    between atoms: C_33  and  C_38
REMARK   37  A    between atoms: C_34  and  C_39
REMARK   38  A    between atoms: C_35  and  C_41
REMARK   39  A    between atoms: C_36  and  C_42
REMARK   40  A    between atoms: C_37  and  C_44
REMARK   41  A    between atoms: C_38  and  C_47
REMARK   42  A    between atoms: C_39  and  C_48
REMARK   43  A    between atoms: C_40  and  C_49
REMARK   44  A    between atoms: C_41  and  C_50
REMARK   45  A    between atoms: C_42  and  C_51
REMARK   46  A    between atoms: C_43  and  C_45
REMARK   47  A    between atoms: C_43  and  C_46
REMARK                            x       y       z     vdW  Elec       q    Type
REMARK                         _______ _______ _______ _____ _____    ______ ____
ROOT
ATOM      1  C   UNL     1      15.856   5.250   0.000  0.00  0.00    +0.000 C 
ENDROOT
BRANCH   1   2
ATOM      2  C   UNL     1      14.990   5.750   0.000  0.00  0.00    +0.000 C 
BRANCH   2   3
ATOM      3  O   UNL     1      14.124   5.250   0.000  0.00  0.00    +0.000 OA
BRANCH   3   5
ATOM      4  O   UNL     1      13.258   6.750   0.000  0.00  0.00    +0.000 OA
ATOM      5  C   UNL     1      13.258   5.750   0.000  0.00  0.00    +0.000 C 
BRANCH   5   6
ATOM      6  C   UNL     1      12.392   5.250   0.000  0.00  0.00    +0.000 C 
BRANCH   6   7
ATOM      7  C   UNL     1      11.526   5.750   0.000  0.00  0.00    +0.000 C 
BRANCH   7   8
ATOM      8  C   UNL     1      10.660   5.250   0.000  0.00  0.00    +0.000 C 
BRANCH   8   9
ATOM      9  C   UNL     1       9.794   5.750   0.000  0.00  0.00    +0.000 C 
BRANCH   9  10
ATOM     10  C   UNL     1       8.928   5.250   0.000  0.00  0.00    +0.000 C 
BRANCH  10  11
ATOM     11  C   UNL     1       8.062   5.750   0.000  0.00  0.00    +0.000 C 
BRANCH  11  12
ATOM     12  C   UNL     1       7.196   5.250   0.000  0.00  0.00    +0.000 C 
BRANCH  12  13
ATOM     13  C   UNL     1       6.330   5.750   0.000  0.00  0.00    +0.000 C 
BRANCH  13  14
ATOM     14  C   UNL     1       5.464   5.250   0.000  0.00  0.00    +0.000 C 
BRANCH  14  15
ATOM     15  C   UNL     1       4.598   5.750   0.000  0.00  0.00    +0.000 C 
BRANCH  15  16
ATOM     16  C   UNL     1       3.732   5.250   0.000  0.00  0.00    +0.000 C 
BRANCH  16  17
ATOM     17  C   UNL     1       2.866   5.750   0.000  0.00  0.00    +0.000 C 
ATOM     18  C   UNL     1       2.000   5.250   0.000  0.00  0.00    +0.000 C 
ENDBRANCH  16  17
ENDBRANCH  15  16
ENDBRANCH  14  15
ENDBRANCH  13  14
ENDBRANCH  12  13
ENDBRANCH  11  12
ENDBRANCH  10  11
ENDBRANCH   9  10
ENDBRANCH   8   9
ENDBRANCH   7   8
ENDBRANCH   6   7
ENDBRANCH   5   6
ENDBRANCH   3   5
ENDBRANCH   2   3
ENDBRANCH   1   2
BRANCH   1  19
ATOM     19  C   UNL     1      15.856   4.250   0.000  0.00  0.00    +0.000 C 
BRANCH  19  20
ATOM     20  O   UNL     1      14.990   3.750   0.000  0.00  0.00    +0.000 OA
BRANCH  20  22
ATOM     21  O   UNL     1      15.856   2.250   0.000  0.00  0.00    +0.000 OA
ATOM     22  C   UNL     1      14.990   2.750   0.000  0.00  0.00    +0.000 C 
BRANCH  22  23
ATOM     23  C   UNL     1      14.124   2.250   0.000  0.00  0.00    +0.000 C 
BRANCH  23  24
ATOM     24  C   UNL     1      14.124   1.250   0.000  0.00  0.00    +0.000 C 
BRANCH  24  25
ATOM     25  C   UNL     1      13.258   0.750   0.000  0.00  0.00    +0.000 C 
BRANCH  25  26
ATOM     26  C   UNL     1      13.258  -0.250   0.000  0.00  0.00    +0.000 C 
BRANCH  26  27
ATOM     27  C   UNL     1      12.392  -0.750   0.000  0.00  0.00    +0.000 C 
BRANCH  27  28
ATOM     28  C   UNL     1      12.392  -1.750   0.000  0.00  0.00    +0.000 C 
BRANCH  28  29
ATOM     29  C   UNL     1      11.526  -2.250   0.000  0.00  0.00    +0.000 C 
BRANCH  29  30
ATOM     30  C   UNL     1      11.526  -3.250   0.000  0.00  0.00    +0.000 C 
BRANCH  30  31
ATOM     31  C   UNL     1      10.660  -3.750   0.000  0.00  0.00    +0.000 C 
BRANCH  31  32
ATOM     32  C   UNL     1      10.660  -4.750   0.000  0.00  0.00    +0.000 C 
BRANCH  32  33
ATOM     33  C   UNL     1       9.794  -5.250   0.000  0.00  0.00    +0.000 C 
BRANCH  33  34
ATOM     34  C   UNL     1       9.794  -6.250   0.000  0.00  0.00    +0.000 C 
ATOM     35  C   UNL     1       8.928  -6.750   0.000  0.00  0.00    +0.000 C 
ENDBRANCH  33  34
ENDBRANCH  32  33
ENDBRANCH  31  32
ENDBRANCH  30  31
ENDBRANCH  29  30
ENDBRANCH  28  29
ENDBRANCH  27  28
ENDBRANCH  26  27
ENDBRANCH  25  26
ENDBRANCH  24  25
ENDBRANCH  23  24
ENDBRANCH  22  23
ENDBRANCH  20  22
ENDBRANCH  19  20
ENDBRANCH   1  19
BRANCH   1  36
ATOM     36  O   UNL     1      16.722   5.750   0.000  0.00  0.00    +0.000 OA
BRANCH  36  38
ATOM     37  O   UNL     1      17.588   4.250   0.000  0.00  0.00    +0.000 OA
ATOM     38  C   UNL     1      17.588   5.250   0.000  0.00  0.00    +0.000 C 
BRANCH  38  39
ATOM     39  C   UNL     1      18.454   5.750   0.000  0.00  0.00    +0.000 C 
BRANCH  39  40
ATOM     40  C   UNL     1      19.320   5.250   0.000  0.00  0.00    +0.000 C 
BRANCH  40  41
ATOM     41  C   UNL     1      20.186   5.750   0.000  0.00  0.00    +0.000 C 
BRANCH  41  42
ATOM     42  C   UNL     1      21.053   5.250   0.000  0.00  0.00    +0.000 C 
BRANCH  42  43
ATOM     43  C   UNL     1      21.919   5.750   0.000  0.00  0.00    +0.000 C 
BRANCH  43  44
ATOM     44  C   UNL     1      22.785   5.250   0.000  0.00  0.00    +0.000 C 
BRANCH  44  45
ATOM     45  C   UNL     1      23.651   5.750   0.000  0.00  0.00    +0.000 C 
BRANCH  45  46
ATOM     46  C   UNL     1      24.517   5.250   0.000  0.00  0.00    +0.000 C 
BRANCH  46  47
ATOM     47  C   UNL     1      25.383   5.750   0.000  0.00  0.00    +0.000 C 
BRANCH  47  48
ATOM     48  C   UNL     1      26.249   5.250   0.000  0.00  0.00    +0.000 C 
BRANCH  48  49
ATOM     49  C   UNL     1      27.115   5.750   0.000  0.00  0.00    +0.000 C 
BRANCH  49  50
ATOM     50  C   UNL     1      27.981   5.250   0.000  0.00  0.00    +0.000 C 
ATOM     51  C   UNL     1      28.847   5.750   0.000  0.00  0.00    +0.000 C 
ENDBRANCH  49  50
ENDBRANCH  48  49
ENDBRANCH  47  48
ENDBRANCH  46  47
ENDBRANCH  45  46
ENDBRANCH  44  45
ENDBRANCH  43  44
ENDBRANCH  42  43
ENDBRANCH  41  42
ENDBRANCH  40  41
ENDBRANCH  39  40
ENDBRANCH  38  39
ENDBRANCH  36  38
ENDBRANCH   1  36
TORSDOF 44
